[H]C1=C([H])C([H])(F)C([H])([H])C([H])=C1N([H])C(=O)C1(C(=O)N([H])c2c([H])c([H])c(Oc3c([H])c([H])nc4c([H])c(OC([H])([H])C([H])([H])C([H])([H])N5C([H])([H])C([H])([H])OC([H])([H])C5([H])[H])c(OC([H])([H])[H])c([H])c34)c(F)c2[H])C([H])([H])C1([H])[H]


 48 53  0  0  0  0  0  0  0  0999 V2000
    9.6634   44.1178  129.6157 C   0  0  0  0  0  0  0  0  0  0  0  0
    9.1741   42.8449  129.8738 C   0  0  0  0  0  0  0  0  0  0  0  0
    9.2646   41.7920  129.0128 C   0  0  0  0  0  0  0  0  0  0  0  0
    9.8893   41.9800  127.7747 C   0  0  0  0  0  0  0  0  0  0  0  0
   10.3871   43.2202  127.4802 C   0  0  0  0  0  0  0  0  0  0  0  0
   10.2794   44.2867  128.3878 C   0  0  0  0  0  0  0  0  0  0  0  0
   10.8202   45.4758  128.0343 F   0  0  0  0  0  0  0  0  0  0  0  0
   10.0166   40.8490  126.8926 N   0  0  0  0  0  0  0  0  0  0  0  0
   11.2143   40.4655  126.3339 C   0  0  0  0  0  0  0  0  0  0  0  0
   12.2381   41.2101  126.6188 O   0  0  0  0  0  0  0  0  0  0  0  0
    9.1233   40.3707  126.6995 H   0  0  0  0  0  0  0  0  0  0  0  0
   11.5576   39.3323  125.4413 C   0  0  0  0  0  0  0  0  0  0  0  0
   10.6199   39.1552  124.2590 C   0  0  0  0  0  0  0  0  0  0  0  0
   10.4136   38.2444  125.3812 C   0  0  0  0  0  0  0  0  0  0  0  0
   12.8961   38.7543  125.3173 C   0  0  0  0  0  0  0  0  0  0  0  0
   13.2140   37.9597  126.3153 O   0  0  0  0  0  0  0  0  0  0  0  0
   13.9005   38.8641  124.3633 N   0  0  0  0  0  0  0  0  0  0  0  0
   13.8235   39.4214  123.4968 H   0  0  0  0  0  0  0  0  0  0  0  0
   15.1639   38.1430  124.5207 C   0  0  0  0  0  0  0  0  0  0  0  0
   15.8532   37.8919  123.4309 C   0  0  0  0  0  0  0  0  0  0  0  0
   17.1322   37.1910  123.3676 C   0  0  0  0  0  0  0  0  0  0  0  0
   17.6479   36.6934  124.6613 C   0  0  0  0  0  0  0  0  0  0  0  0
   18.9293   37.2483  124.9104 F   0  0  0  0  0  0  0  0  0  0  0  0
   16.8064   37.0261  125.8122 C   0  0  0  0  0  0  0  0  0  0  0  0
   15.6672   37.6870  125.7760 C   0  0  0  0  0  0  0  0  0  0  0  0
    9.5429   45.1402  130.5310 O   0  0  0  0  0  0  0  0  0  0  0  0
   10.4805   48.3253  132.9278 C   0  0  0  0  0  0  0  0  0  0  0  0
   10.1761   47.2505  132.1386 C   0  0  0  0  0  0  0  0  0  0  0  0
    9.3832   47.4436  131.0280 C   0  0  0  0  0  0  0  0  0  0  0  0
    9.0401   46.3642  130.1854 C   0  0  0  0  0  0  0  0  0  0  0  0
    8.2436   46.5776  129.0851 C   0  0  0  0  0  0  0  0  0  0  0  0
    7.7708   47.8360  128.7844 C   0  0  0  0  0  0  0  0  0  0  0  0
    8.0995   48.8606  129.5869 N   0  0  0  0  0  0  0  0  0  0  0  0
    8.8861   48.6738  130.6828 C   0  0  0  0  0  0  0  0  0  0  0  0
    9.1977   49.7598  131.4866 C   0  0  0  0  0  0  0  0  0  0  0  0
    9.9870   49.5989  132.5999 C   0  0  0  0  0  0  0  0  0  0  0  0
   11.3508   47.0299  134.7687 C   0  0  0  0  0  0  0  0  0  0  0  0
   11.2644   48.2465  134.0628 O   0  0  0  0  0  0  0  0  0  0  0  0
   10.3044   50.6563  133.3883 O   0  0  0  0  0  0  0  0  0  0  0  0
    9.4016   51.5406  133.9459 C   0  0  0  0  0  0  0  0  0  0  0  0
    9.9854   52.9358  134.1190 C   0  0  0  0  0  0  0  0  0  0  0  0
   11.3889   52.7970  134.7238 C   0  0  0  0  0  0  0  0  0  0  0  0
   12.1083   54.0190  134.4639 N   0  0  0  0  0  0  0  0  0  0  0  0
   12.1475   54.8483  135.6909 C   0  0  0  0  0  0  0  0  0  0  0  0
   13.0408   56.0343  135.3152 C   0  0  0  0  0  0  0  0  0  0  0  0
   13.1890   56.1658  133.9345 O   0  0  0  0  0  0  0  0  0  0  0  0
   13.9155   55.0934  133.3800 C   0  0  0  0  0  0  0  0  0  0  0  0
   13.5054   53.7989  134.0943 C   0  0  0  0  0  0  0  0  0  0  0  0
 37 38  1  0  0  0
 38 27  1  0  0  0
 27 28  2  0  0  0
 28 29  1  0  0  0
 29 30  2  0  0  0
 30 26  1  0  0  0
 26  1  1  0  0  0
  1  2  2  0  0  0
  2  3  1  0  0  0
  3  4  2  0  0  0
  4  8  1  0  0  0
  8  9  1  0  0  0
  9 10  2  0  0  0
  9 12  1  0  0  0
 12 13  1  0  0  0
 13 14  1  0  0  0
 12 15  1  0  0  0
 15 16  2  0  0  0
 15 17  1  0  0  0
 17 19  1  0  0  0
 19 20  2  0  0  0
 20 21  1  0  0  0
 21 22  1  0  0  0
 22 23  1  0  0  0
 22 24  1  0  0  0
 24 25  2  0  0  0
  4  5  1  0  0  0
  5  6  2  0  0  0
  6  7  1  0  0  0
 30 31  1  0  0  0
 31 32  2  0  0  0
 32 33  1  0  0  0
 33 34  2  0  0  0
 34 35  1  0  0  0
 35 36  2  0  0  0
 36 39  1  0  0  0
 39 40  1  0  0  0
 40 41  1  0  0  0
 41 42  1  0  0  0
 42 43  1  0  0  0
 43 44  1  0  0  0
 44 45  1  0  0  0
 45 46  1  0  0  0
 46 47  1  0  0  0
 47 48  1  0  0  0
 36 27  1  0  0  0
 48 43  1  0  0  0
 34 29  1  0  0  0
  6  1  1  0  0  0
 14 12  1  0  0  0
 25 19  1  0  0  0
  8 11  1  0  0  0
 17 18  1  0  0  0
M  END
> <minimizedAffinity>
39.54957

> <CNNscore>
0.4947678149

> <CNNaffinity>
7.5664000511

> <CNN_VS>
3.7436113358

> <CNNaffinity_variance>
0.7152419090

$$$$
[H]C1=C([H])C([H])(F)C([H])([H])C([H])=C1N([H])C(=O)C1(C(=O)N([H])c2c([H])c([H])c(Oc3c([H])c([H])nc4c([H])c(OC([H])([H])C([H])([H])C([H])([H])N5C([H])([H])C([H])([H])OC([H])([H])C5([H])[H])c(OC([H])([H])[H])c([H])c34)c(F)c2[H])C([H])([H])C1([H])[H]


 48 53  0  0  0  0  0  0  0  0999 V2000
    9.0787   45.6945  130.6036 C   0  0  0  0  0  0  0  0  0  0  0  0
    9.9504   45.0634  131.4800 C   0  0  0  0  0  0  0  0  0  0  0  0
   11.1830   44.5914  131.1391 C   0  0  0  0  0  0  0  0  0  0  0  0
   11.6252   44.7401  129.8197 C   0  0  0  0  0  0  0  0  0  0  0  0
   10.7967   45.3581  128.9229 C   0  0  0  0  0  0  0  0  0  0  0  0
    9.5315   45.8348  129.3032 C   0  0  0  0  0  0  0  0  0  0  0  0
    8.7816   46.4583  128.3650 F   0  0  0  0  0  0  0  0  0  0  0  0
   12.9462   44.2760  129.4833 N   0  0  0  0  0  0  0  0  0  0  0  0
   13.9116   45.0927  128.9405 C   0  0  0  0  0  0  0  0  0  0  0  0
   13.5541   46.3184  128.7089 O   0  0  0  0  0  0  0  0  0  0  0  0
   13.0913   43.2708  129.6633 H   0  0  0  0  0  0  0  0  0  0  0  0
   15.3187   44.8219  128.5587 C   0  0  0  0  0  0  0  0  0  0  0  0
   15.5254   43.5260  127.7930 C   0  0  0  0  0  0  0  0  0  0  0  0
   15.8751   43.4944  129.2101 C   0  0  0  0  0  0  0  0  0  0  0  0
   16.3465   45.8522  128.4065 C   0  0  0  0  0  0  0  0  0  0  0  0
   16.4654   46.2899  127.1725 O   0  0  0  0  0  0  0  0  0  0  0  0
   17.2200   46.4698  129.2933 N   0  0  0  0  0  0  0  0  0  0  0  0
   17.2549   46.2764  130.3076 H   0  0  0  0  0  0  0  0  0  0  0  0
   18.1567   47.4939  128.8298 C   0  0  0  0  0  0  0  0  0  0  0  0
   19.3996   47.4051  129.2458 C   0  0  0  0  0  0  0  0  0  0  0  0
   20.4862   48.3174  128.9021 C   0  0  0  0  0  0  0  0  0  0  0  0
   20.1081   49.4589  128.0412 C   0  0  0  0  0  0  0  0  0  0  0  0
   20.8842   49.4400  126.8541 F   0  0  0  0  0  0  0  0  0  0  0  0
   18.7021   49.4646  127.6331 C   0  0  0  0  0  0  0  0  0  0  0  0
   17.7896   48.5794  127.9790 C   0  0  0  0  0  0  0  0  0  0  0  0
    7.8454   46.1525  131.0122 O   0  0  0  0  0  0  0  0  0  0  0  0
    7.7118   49.4121  128.5371 C   0  0  0  0  0  0  0  0  0  0  0  0
    7.7595   48.3128  129.3495 C   0  0  0  0  0  0  0  0  0  0  0  0
    7.6398   48.4861  130.7116 C   0  0  0  0  0  0  0  0  0  0  0  0
    7.6860   47.3819  131.5898 C   0  0  0  0  0  0  0  0  0  0  0  0
    7.5697   47.5772  132.9459 C   0  0  0  0  0  0  0  0  0  0  0  0
    7.4053   48.8406  133.4696 C   0  0  0  0  0  0  0  0  0  0  0  0
    7.3607   49.8886  132.6320 N   0  0  0  0  0  0  0  0  0  0  0  0
    7.4748   49.7203  131.2853 C   0  0  0  0  0  0  0  0  0  0  0  0
    7.4273   50.8313  130.4570 C   0  0  0  0  0  0  0  0  0  0  0  0
    7.5425   50.6902  129.0950 C   0  0  0  0  0  0  0  0  0  0  0  0
    7.1783   48.3213  126.4515 C   0  0  0  0  0  0  0  0  0  0  0  0
    7.8219   49.3549  127.1611 O   0  0  0  0  0  0  0  0  0  0  0  0
    7.4893   51.7698  128.2752 O   0  0  0  0  0  0  0  0  0  0  0  0
    6.6724   52.8698  128.4496 C   0  0  0  0  0  0  0  0  0  0  0  0
    6.4300   53.6259  127.1507 C   0  0  0  0  0  0  0  0  0  0  0  0
    7.4583   54.7611  127.0573 C   0  0  0  0  0  0  0  0  0  0  0  0
    6.8908   55.8102  126.2476 N   0  0  0  0  0  0  0  0  0  0  0  0
    5.7390   55.2830  125.4792 C   0  0  0  0  0  0  0  0  0  0  0  0
    5.1597   56.5145  124.7769 C   0  0  0  0  0  0  0  0  0  0  0  0
    6.0606   57.5791  124.7513 O   0  0  0  0  0  0  0  0  0  0  0  0
    6.3036   58.0922  126.0408 C   0  0  0  0  0  0  0  0  0  0  0  0
    6.3616   56.9235  127.0333 C   0  0  0  0  0  0  0  0  0  0  0  0
 37 38  1  0  0  0
 38 27  1  0  0  0
 27 28  2  0  0  0
 28 29  1  0  0  0
 29 30  2  0  0  0
 30 26  1  0  0  0
 26  1  1  0  0  0
  1  2  2  0  0  0
  2  3  1  0  0  0
  3  4  2  0  0  0
  4  8  1  0  0  0
  8  9  1  0  0  0
  9 10  2  0  0  0
  9 12  1  0  0  0
 12 13  1  0  0  0
 13 14  1  0  0  0
 12 15  1  0  0  0
 15 16  2  0  0  0
 15 17  1  0  0  0
 17 19  1  0  0  0
 19 20  2  0  0  0
 20 21  1  0  0  0
 21 22  1  0  0  0
 22 23  1  0  0  0
 22 24  1  0  0  0
 24 25  2  0  0  0
  4  5  1  0  0  0
  5  6  2  0  0  0
  6  7  1  0  0  0
 30 31  1  0  0  0
 31 32  2  0  0  0
 32 33  1  0  0  0
 33 34  2  0  0  0
 34 35  1  0  0  0
 35 36  2  0  0  0
 36 39  1  0  0  0
 39 40  1  0  0  0
 40 41  1  0  0  0
 41 42  1  0  0  0
 42 43  1  0  0  0
 43 44  1  0  0  0
 44 45  1  0  0  0
 45 46  1  0  0  0
 46 47  1  0  0  0
 47 48  1  0  0  0
 36 27  1  0  0  0
 48 43  1  0  0  0
 34 29  1  0  0  0
  6  1  1  0  0  0
 14 12  1  0  0  0
 25 19  1  0  0  0
  8 11  1  0  0  0
 17 18  1  0  0  0
M  END
> <minimizedAffinity>
36.87529

> <CNNscore>
0.4727714360

> <CNNaffinity>
7.1704955101

> <CNN_VS>
3.3900053501

> <CNNaffinity_variance>
0.5764744282

$$$$
[H]C1=C([H])C([H])(F)C([H])([H])C([H])=C1N([H])C(=O)C1(C(=O)N([H])c2c([H])c([H])c(Oc3c([H])c([H])nc4c([H])c(OC([H])([H])C([H])([H])C([H])([H])N5C([H])([H])C([H])([H])OC([H])([H])C5([H])[H])c(OC([H])([H])[H])c([H])c34)c(F)c2[H])C([H])([H])C1([H])[H]


 48 53  0  0  0  0  0  0  0  0999 V2000
   10.5553   45.6094  129.7180 C   0  0  0  0  0  0  0  0  0  0  0  0
    9.8162   46.2481  130.7040 C   0  0  0  0  0  0  0  0  0  0  0  0
    8.8765   47.2069  130.4675 C   0  0  0  0  0  0  0  0  0  0  0  0
    8.6193   47.5934  129.1472 C   0  0  0  0  0  0  0  0  0  0  0  0
    9.3255   46.9875  128.1439 C   0  0  0  0  0  0  0  0  0  0  0  0
   10.2880   46.0021  128.4180 C   0  0  0  0  0  0  0  0  0  0  0  0
   10.9256   45.4310  127.3698 F   0  0  0  0  0  0  0  0  0  0  0  0
    7.5939   48.5758  128.9083 N   0  0  0  0  0  0  0  0  0  0  0  0
    7.6078   49.8275  129.4798 C   0  0  0  0  0  0  0  0  0  0  0  0
    8.5922   50.0714  130.2893 O   0  0  0  0  0  0  0  0  0  0  0  0
    6.8372   48.2441  128.2908 H   0  0  0  0  0  0  0  0  0  0  0  0
    6.6798   50.9757  129.3401 C   0  0  0  0  0  0  0  0  0  0  0  0
    5.7129   51.1488  130.4992 C   0  0  0  0  0  0  0  0  0  0  0  0
    5.1660   50.5255  129.2976 C   0  0  0  0  0  0  0  0  0  0  0  0
    6.9433   52.1555  128.5156 C   0  0  0  0  0  0  0  0  0  0  0  0
    6.9115   53.2814  129.1936 O   0  0  0  0  0  0  0  0  0  0  0  0
    7.2257   52.3359  127.1670 N   0  0  0  0  0  0  0  0  0  0  0  0
    7.3181   51.5676  126.4826 H   0  0  0  0  0  0  0  0  0  0  0  0
    7.4492   53.6754  126.6221 C   0  0  0  0  0  0  0  0  0  0  0  0
    6.5939   54.6132  126.9607 C   0  0  0  0  0  0  0  0  0  0  0  0
    6.6361   56.0079  126.5314 C   0  0  0  0  0  0  0  0  0  0  0  0
    7.7285   56.3510  125.5955 C   0  0  0  0  0  0  0  0  0  0  0  0
    8.5276   57.3828  126.1511 F   0  0  0  0  0  0  0  0  0  0  0  0
    8.6252   55.2366  125.2832 C   0  0  0  0  0  0  0  0  0  0  0  0
    8.5204   54.0046  125.7382 C   0  0  0  0  0  0  0  0  0  0  0  0
   11.4898   44.6444  130.0232 O   0  0  0  0  0  0  0  0  0  0  0  0
   12.0163   44.8261  134.0802 C   0  0  0  0  0  0  0  0  0  0  0  0
   11.8474   44.7820  132.7236 C   0  0  0  0  0  0  0  0  0  0  0  0
   11.3582   43.6277  132.1510 C   0  0  0  0  0  0  0  0  0  0  0  0
   11.1699   43.5343  130.7551 C   0  0  0  0  0  0  0  0  0  0  0  0
   10.6853   42.3717  130.2034 C   0  0  0  0  0  0  0  0  0  0  0  0
   10.3751   41.2867  130.9933 C   0  0  0  0  0  0  0  0  0  0  0  0
   10.5543   41.3788  132.3204 N   0  0  0  0  0  0  0  0  0  0  0  0
   11.0338   42.5193  132.8897 C   0  0  0  0  0  0  0  0  0  0  0  0
   11.2072   42.5695  134.2645 C   0  0  0  0  0  0  0  0  0  0  0  0
   11.6919   43.7067  134.8645 C   0  0  0  0  0  0  0  0  0  0  0  0
   11.8322   47.1651  134.6454 C   0  0  0  0  0  0  0  0  0  0  0  0
   12.4993   45.9288  134.7580 O   0  0  0  0  0  0  0  0  0  0  0  0
   11.8576   43.7690  136.2095 O   0  0  0  0  0  0  0  0  0  0  0  0
   12.1097   42.6924  137.0373 C   0  0  0  0  0  0  0  0  0  0  0  0
   13.3287   42.9122  137.9223 C   0  0  0  0  0  0  0  0  0  0  0  0
   14.3963   41.8808  137.5334 C   0  0  0  0  0  0  0  0  0  0  0  0
   15.3114   41.7489  138.6394 N   0  0  0  0  0  0  0  0  0  0  0  0
   15.7768   40.3460  138.7406 C   0  0  0  0  0  0  0  0  0  0  0  0
   16.8271   40.3772  139.8548 C   0  0  0  0  0  0  0  0  0  0  0  0
   16.7304   41.5273  140.6381 O   0  0  0  0  0  0  0  0  0  0  0  0
   17.0705   42.6865  139.9129 C   0  0  0  0  0  0  0  0  0  0  0  0
   16.5221   42.5537  138.4861 C   0  0  0  0  0  0  0  0  0  0  0  0
 37 38  1  0  0  0
 38 27  1  0  0  0
 27 28  2  0  0  0
 28 29  1  0  0  0
 29 30  2  0  0  0
 30 26  1  0  0  0
 26  1  1  0  0  0
  1  2  2  0  0  0
  2  3  1  0  0  0
  3  4  2  0  0  0
  4  8  1  0  0  0
  8  9  1  0  0  0
  9 10  2  0  0  0
  9 12  1  0  0  0
 12 13  1  0  0  0
 13 14  1  0  0  0
 12 15  1  0  0  0
 15 16  2  0  0  0
 15 17  1  0  0  0
 17 19  1  0  0  0
 19 20  2  0  0  0
 20 21  1  0  0  0
 21 22  1  0  0  0
 22 23  1  0  0  0
 22 24  1  0  0  0
 24 25  2  0  0  0
  4  5  1  0  0  0
  5  6  2  0  0  0
  6  7  1  0  0  0
 30 31  1  0  0  0
 31 32  2  0  0  0
 32 33  1  0  0  0
 33 34  2  0  0  0
 34 35  1  0  0  0
 35 36  2  0  0  0
 36 39  1  0  0  0
 39 40  1  0  0  0
 40 41  1  0  0  0
 41 42  1  0  0  0
 42 43  1  0  0  0
 43 44  1  0  0  0
 44 45  1  0  0  0
 45 46  1  0  0  0
 46 47  1  0  0  0
 47 48  1  0  0  0
 36 27  1  0  0  0
 48 43  1  0  0  0
 34 29  1  0  0  0
  6  1  1  0  0  0
 14 12  1  0  0  0
 25 19  1  0  0  0
  8 11  1  0  0  0
 17 18  1  0  0  0
M  END
> <minimizedAffinity>
13.22647

> <CNNscore>
0.4252904654

> <CNNaffinity>
7.6275963783

> <CNN_VS>
3.2439439297

> <CNNaffinity_variance>
0.6219741106

$$$$
[H]C1=C([H])C([H])(F)C([H])([H])C([H])=C1N([H])C(=O)C1(C(=O)N([H])c2c([H])c([H])c(Oc3c([H])c([H])nc4c([H])c(OC([H])([H])C([H])([H])C([H])([H])N5C([H])([H])C([H])([H])OC([H])([H])C5([H])[H])c(OC([H])([H])[H])c([H])c34)c(F)c2[H])C([H])([H])C1([H])[H]


 48 53  0  0  0  0  0  0  0  0999 V2000
   11.2186   44.9812  134.5261 C   0  0  0  0  0  0  0  0  0  0  0  0
   10.7701   44.4685  135.7354 C   0  0  0  0  0  0  0  0  0  0  0  0
   11.4816   43.6154  136.5255 C   0  0  0  0  0  0  0  0  0  0  0  0
   12.7563   43.2117  136.1119 C   0  0  0  0  0  0  0  0  0  0  0  0
   13.2374   43.6949  134.9255 C   0  0  0  0  0  0  0  0  0  0  0  0
   12.4813   44.5733  134.1323 C   0  0  0  0  0  0  0  0  0  0  0  0
   13.0371   45.0282  132.9853 F   0  0  0  0  0  0  0  0  0  0  0  0
   13.5144   42.3448  136.9764 N   0  0  0  0  0  0  0  0  0  0  0  0
   14.8006   42.6252  137.3776 C   0  0  0  0  0  0  0  0  0  0  0  0
   15.3199   43.7142  136.9000 O   0  0  0  0  0  0  0  0  0  0  0  0
   13.0131   41.4842  137.2444 H   0  0  0  0  0  0  0  0  0  0  0  0
   15.7261   41.8916  138.2743 C   0  0  0  0  0  0  0  0  0  0  0  0
   16.1676   42.6736  139.4999 C   0  0  0  0  0  0  0  0  0  0  0  0
   17.1302   42.6040  138.4045 C   0  0  0  0  0  0  0  0  0  0  0  0
   15.8215   40.4334  138.3493 C   0  0  0  0  0  0  0  0  0  0  0  0
   16.5907   39.9140  137.4182 O   0  0  0  0  0  0  0  0  0  0  0  0
   15.2744   39.4819  139.2015 N   0  0  0  0  0  0  0  0  0  0  0  0
   14.6669   39.7016  140.0078 H   0  0  0  0  0  0  0  0  0  0  0  0
   15.5638   38.0593  139.0190 C   0  0  0  0  0  0  0  0  0  0  0  0
   14.6634   37.3378  138.3910 C   0  0  0  0  0  0  0  0  0  0  0  0
   14.7566   35.9093  138.1046 C   0  0  0  0  0  0  0  0  0  0  0  0
   15.9677   35.2361  138.6215 C   0  0  0  0  0  0  0  0  0  0  0  0
   16.6739   34.6332  137.5493 F   0  0  0  0  0  0  0  0  0  0  0  0
   16.9066   36.1282  139.3044 C   0  0  0  0  0  0  0  0  0  0  0  0
   16.7466   37.4213  139.4997 C   0  0  0  0  0  0  0  0  0  0  0  0
   10.4508   45.8437  133.7751 O   0  0  0  0  0  0  0  0  0  0  0  0
    9.2580   48.6242  131.0155 C   0  0  0  0  0  0  0  0  0  0  0  0
    9.6639   47.7086  131.9470 C   0  0  0  0  0  0  0  0  0  0  0  0
    9.3031   46.3885  131.7840 C   0  0  0  0  0  0  0  0  0  0  0  0
    9.6963   45.4084  132.7207 C   0  0  0  0  0  0  0  0  0  0  0  0
    9.3215   44.0975  132.5420 C   0  0  0  0  0  0  0  0  0  0  0  0
    8.5645   43.7176  131.4557 C   0  0  0  0  0  0  0  0  0  0  0  0
    8.1930   44.6516  130.5661 N   0  0  0  0  0  0  0  0  0  0  0  0
    8.5512   45.9562  130.7223 C   0  0  0  0  0  0  0  0  0  0  0  0
    8.1422   46.8887  129.7811 C   0  0  0  0  0  0  0  0  0  0  0  0
    8.4872   48.2120  129.9158 C   0  0  0  0  0  0  0  0  0  0  0  0
    9.1306   50.7310  132.1858 C   0  0  0  0  0  0  0  0  0  0  0  0
    9.5609   49.9706  131.0800 O   0  0  0  0  0  0  0  0  0  0  0  0
    8.0991   49.1309  128.9964 O   0  0  0  0  0  0  0  0  0  0  0  0
    7.3696   50.2732  129.2625 C   0  0  0  0  0  0  0  0  0  0  0  0
    7.0530   51.0676  128.0031 C   0  0  0  0  0  0  0  0  0  0  0  0
    7.0676   52.5599  128.3608 C   0  0  0  0  0  0  0  0  0  0  0  0
    7.1923   53.3098  127.1360 N   0  0  0  0  0  0  0  0  0  0  0  0
    5.9570   54.0927  126.8994 C   0  0  0  0  0  0  0  0  0  0  0  0
    6.2741   54.9300  125.6569 C   0  0  0  0  0  0  0  0  0  0  0  0
    7.3739   54.4362  124.9553 O   0  0  0  0  0  0  0  0  0  0  0  0
    8.5694   54.5754  125.6878 C   0  0  0  0  0  0  0  0  0  0  0  0
    8.2774   54.2889  127.1666 C   0  0  0  0  0  0  0  0  0  0  0  0
 37 38  1  0  0  0
 38 27  1  0  0  0
 27 28  2  0  0  0
 28 29  1  0  0  0
 29 30  2  0  0  0
 30 26  1  0  0  0
 26  1  1  0  0  0
  1  2  2  0  0  0
  2  3  1  0  0  0
  3  4  2  0  0  0
  4  8  1  0  0  0
  8  9  1  0  0  0
  9 10  2  0  0  0
  9 12  1  0  0  0
 12 13  1  0  0  0
 13 14  1  0  0  0
 12 15  1  0  0  0
 15 16  2  0  0  0
 15 17  1  0  0  0
 17 19  1  0  0  0
 19 20  2  0  0  0
 20 21  1  0  0  0
 21 22  1  0  0  0
 22 23  1  0  0  0
 22 24  1  0  0  0
 24 25  2  0  0  0
  4  5  1  0  0  0
  5  6  2  0  0  0
  6  7  1  0  0  0
 30 31  1  0  0  0
 31 32  2  0  0  0
 32 33  1  0  0  0
 33 34  2  0  0  0
 34 35  1  0  0  0
 35 36  2  0  0  0
 36 39  1  0  0  0
 39 40  1  0  0  0
 40 41  1  0  0  0
 41 42  1  0  0  0
 42 43  1  0  0  0
 43 44  1  0  0  0
 44 45  1  0  0  0
 45 46  1  0  0  0
 46 47  1  0  0  0
 47 48  1  0  0  0
 36 27  1  0  0  0
 48 43  1  0  0  0
 34 29  1  0  0  0
  6  1  1  0  0  0
 14 12  1  0  0  0
 25 19  1  0  0  0
  8 11  1  0  0  0
 17 18  1  0  0  0
M  END
> <minimizedAffinity>
13.84902

> <CNNscore>
0.3336072564

> <CNNaffinity>
7.4257798195

> <CNN_VS>
2.4772939682

> <CNNaffinity_variance>
0.1694814414

$$$$
[H]C1=C([H])C([H])(F)C([H])([H])C([H])=C1N([H])C(=O)C1(C(=O)N([H])c2c([H])c([H])c(Oc3c([H])c([H])nc4c([H])c(OC([H])([H])C([H])([H])C([H])([H])N5C([H])([H])C([H])([H])OC([H])([H])C5([H])[H])c(OC([H])([H])[H])c([H])c34)c(F)c2[H])C([H])([H])C1([H])[H]


 48 53  0  0  0  0  0  0  0  0999 V2000
    7.5564   48.6458  129.8018 C   0  0  0  0  0  0  0  0  0  0  0  0
    8.1386   49.7589  130.3921 C   0  0  0  0  0  0  0  0  0  0  0  0
    7.9083   51.0468  130.0096 C   0  0  0  0  0  0  0  0  0  0  0  0
    7.0277   51.2925  128.9499 C   0  0  0  0  0  0  0  0  0  0  0  0
    6.4308   50.2227  128.3403 C   0  0  0  0  0  0  0  0  0  0  0  0
    6.6873   48.9061  128.7565 C   0  0  0  0  0  0  0  0  0  0  0  0
    6.0379   47.9033  128.1208 F   0  0  0  0  0  0  0  0  0  0  0  0
    6.7601   52.6594  128.5844 N   0  0  0  0  0  0  0  0  0  0  0  0
    7.1546   53.2050  127.3842 C   0  0  0  0  0  0  0  0  0  0  0  0
    7.8247   52.4209  126.5968 O   0  0  0  0  0  0  0  0  0  0  0  0
    6.2690   53.1960  129.3156 H   0  0  0  0  0  0  0  0  0  0  0  0
    6.9531   54.5585  126.8131 C   0  0  0  0  0  0  0  0  0  0  0  0
    6.9003   55.6750  127.8422 C   0  0  0  0  0  0  0  0  0  0  0  0
    5.6139   55.2307  127.3138 C   0  0  0  0  0  0  0  0  0  0  0  0
    7.2989   54.9369  125.4425 C   0  0  0  0  0  0  0  0  0  0  0  0
    6.6186   55.9718  125.0014 O   0  0  0  0  0  0  0  0  0  0  0  0
    8.1995   54.4358  124.5105 N   0  0  0  0  0  0  0  0  0  0  0  0
    8.8391   53.6434  124.6850 H   0  0  0  0  0  0  0  0  0  0  0  0
    8.3223   55.0453  123.1860 C   0  0  0  0  0  0  0  0  0  0  0  0
    7.5440   54.5806  122.2352 C   0  0  0  0  0  0  0  0  0  0  0  0
    7.5069   55.0475  120.8525 C   0  0  0  0  0  0  0  0  0  0  0  0
    8.4779   56.1108  120.5155 C   0  0  0  0  0  0  0  0  0  0  0  0
    7.7887   57.2498  120.0260 F   0  0  0  0  0  0  0  0  0  0  0  0
    9.2960   56.5581  121.6443 C   0  0  0  0  0  0  0  0  0  0  0  0
    9.2453   56.0884  122.8742 C   0  0  0  0  0  0  0  0  0  0  0  0
    7.8288   47.3679  130.2383 O   0  0  0  0  0  0  0  0  0  0  0  0
   10.5485   46.5716  133.1943 C   0  0  0  0  0  0  0  0  0  0  0  0
    9.6298   46.8464  132.2189 C   0  0  0  0  0  0  0  0  0  0  0  0
    9.8930   46.4488  130.9257 C   0  0  0  0  0  0  0  0  0  0  0  0
    8.9762   46.7128  129.8853 C   0  0  0  0  0  0  0  0  0  0  0  0
    9.2603   46.3120  128.6010 C   0  0  0  0  0  0  0  0  0  0  0  0
   10.4319   45.6500  128.3069 C   0  0  0  0  0  0  0  0  0  0  0  0
   11.3013   45.3995  129.2985 N   0  0  0  0  0  0  0  0  0  0  0  0
   11.0424   45.7875  130.5780 C   0  0  0  0  0  0  0  0  0  0  0  0
   11.9703   45.5117  131.5708 C   0  0  0  0  0  0  0  0  0  0  0  0
   11.7356   45.8944  132.8695 C   0  0  0  0  0  0  0  0  0  0  0  0
    9.3065   46.4002  135.2564 C   0  0  0  0  0  0  0  0  0  0  0  0
   10.3883   46.9239  134.5206 O   0  0  0  0  0  0  0  0  0  0  0  0
   12.6332   45.6223  133.8497 O   0  0  0  0  0  0  0  0  0  0  0  0
   12.8949   44.3711  134.3728 C   0  0  0  0  0  0  0  0  0  0  0  0
   11.6479   43.5014  134.4520 C   0  0  0  0  0  0  0  0  0  0  0  0
   11.6068   42.6069  133.2057 C   0  0  0  0  0  0  0  0  0  0  0  0
   10.4263   42.9479  132.4519 N   0  0  0  0  0  0  0  0  0  0  0  0
   10.4295   42.2229  131.1599 C   0  0  0  0  0  0  0  0  0  0  0  0
    9.0772   42.5697  130.5303 C   0  0  0  0  0  0  0  0  0  0  0  0
    8.4905   43.6873  131.1240 O   0  0  0  0  0  0  0  0  0  0  0  0
    8.1116   43.4352  132.4574 C   0  0  0  0  0  0  0  0  0  0  0  0
    9.1842   42.5585  133.1172 C   0  0  0  0  0  0  0  0  0  0  0  0
 37 38  1  0  0  0
 38 27  1  0  0  0
 27 28  2  0  0  0
 28 29  1  0  0  0
 29 30  2  0  0  0
 30 26  1  0  0  0
 26  1  1  0  0  0
  1  2  2  0  0  0
  2  3  1  0  0  0
  3  4  2  0  0  0
  4  8  1  0  0  0
  8  9  1  0  0  0
  9 10  2  0  0  0
  9 12  1  0  0  0
 12 13  1  0  0  0
 13 14  1  0  0  0
 12 15  1  0  0  0
 15 16  2  0  0  0
 15 17  1  0  0  0
 17 19  1  0  0  0
 19 20  2  0  0  0
 20 21  1  0  0  0
 21 22  1  0  0  0
 22 23  1  0  0  0
 22 24  1  0  0  0
 24 25  2  0  0  0
  4  5  1  0  0  0
  5  6  2  0  0  0
  6  7  1  0  0  0
 30 31  1  0  0  0
 31 32  2  0  0  0
 32 33  1  0  0  0
 33 34  2  0  0  0
 34 35  1  0  0  0
 35 36  2  0  0  0
 36 39  1  0  0  0
 39 40  1  0  0  0
 40 41  1  0  0  0
 41 42  1  0  0  0
 42 43  1  0  0  0
 43 44  1  0  0  0
 44 45  1  0  0  0
 45 46  1  0  0  0
 46 47  1  0  0  0
 47 48  1  0  0  0
 36 27  1  0  0  0
 48 43  1  0  0  0
 34 29  1  0  0  0
  6  1  1  0  0  0
 14 12  1  0  0  0
 25 19  1  0  0  0
  8 11  1  0  0  0
 17 18  1  0  0  0
M  END
> <minimizedAffinity>
3.01942

> <CNNscore>
0.3230383992

> <CNNaffinity>
7.8170785904

> <CNN_VS>
2.5252165794

> <CNNaffinity_variance>
0.2132343799

$$$$
[H]C1=C([H])C([H])(F)C([H])([H])C([H])=C1N([H])C(=O)C1(C(=O)N([H])c2c([H])c([H])c(Oc3c([H])c([H])nc4c([H])c(OC([H])([H])C([H])([H])C([H])([H])N5C([H])([H])C([H])([H])OC([H])([H])C5([H])[H])c(OC([H])([H])[H])c([H])c34)c(F)c2[H])C([H])([H])C1([H])[H]


 48 53  0  0  0  0  0  0  0  0999 V2000
    8.7917   45.1314  129.9609 C   0  0  0  0  0  0  0  0  0  0  0  0
    9.5505   44.4835  130.9257 C   0  0  0  0  0  0  0  0  0  0  0  0
   10.8396   44.0761  130.7511 C   0  0  0  0  0  0  0  0  0  0  0  0
   11.4659   44.3148  129.5225 C   0  0  0  0  0  0  0  0  0  0  0  0
   10.7535   44.9523  128.5435 C   0  0  0  0  0  0  0  0  0  0  0  0
    9.4261   45.3610  128.7523 C   0  0  0  0  0  0  0  0  0  0  0  0
    8.7972   46.0093  127.7445 F   0  0  0  0  0  0  0  0  0  0  0  0
   12.8413   43.9182  129.3661 N   0  0  0  0  0  0  0  0  0  0  0  0
   13.8016   44.7417  128.8246 C   0  0  0  0  0  0  0  0  0  0  0  0
   13.3907   45.9044  128.4209 O   0  0  0  0  0  0  0  0  0  0  0  0
   13.0323   42.9523  129.6736 H   0  0  0  0  0  0  0  0  0  0  0  0
   15.2546   44.5382  128.6090 C   0  0  0  0  0  0  0  0  0  0  0  0
   15.6190   43.1946  128.0004 C   0  0  0  0  0  0  0  0  0  0  0  0
   15.8226   43.3209  129.4405 C   0  0  0  0  0  0  0  0  0  0  0  0
   16.2265   45.6210  128.4539 C   0  0  0  0  0  0  0  0  0  0  0  0
   16.2127   46.1647  127.2571 O   0  0  0  0  0  0  0  0  0  0  0  0
   17.1578   46.1995  129.3077 N   0  0  0  0  0  0  0  0  0  0  0  0
   17.2953   45.9239  130.2938 H   0  0  0  0  0  0  0  0  0  0  0  0
   18.0099   47.2981  128.8515 C   0  0  0  0  0  0  0  0  0  0  0  0
   19.1440   47.4841  129.4879 C   0  0  0  0  0  0  0  0  0  0  0  0
   20.1336   48.5160  129.1928 C   0  0  0  0  0  0  0  0  0  0  0  0
   19.7740   49.4466  128.1011 C   0  0  0  0  0  0  0  0  0  0  0  0
   20.7661   49.4016  127.0884 F   0  0  0  0  0  0  0  0  0  0  0  0
   18.4922   49.1523  127.4577 C   0  0  0  0  0  0  0  0  0  0  0  0
   17.6670   48.1774  127.7808 C   0  0  0  0  0  0  0  0  0  0  0  0
    7.4925   45.5211  130.2016 O   0  0  0  0  0  0  0  0  0  0  0  0
    9.1730   48.2643  132.7353 C   0  0  0  0  0  0  0  0  0  0  0  0
    8.6208   47.3349  131.8974 C   0  0  0  0  0  0  0  0  0  0  0  0
    7.6936   47.7472  130.9647 C   0  0  0  0  0  0  0  0  0  0  0  0
    7.0946   46.8239  130.0807 C   0  0  0  0  0  0  0  0  0  0  0  0
    6.1680   47.2553  129.1608 C   0  0  0  0  0  0  0  0  0  0  0  0
    5.8105   48.5833  129.0826 C   0  0  0  0  0  0  0  0  0  0  0  0
    6.3825   49.4590  129.9238 N   0  0  0  0  0  0  0  0  0  0  0  0
    7.3020   49.0555  130.8440 C   0  0  0  0  0  0  0  0  0  0  0  0
    7.8649   49.9934  131.6961 C   0  0  0  0  0  0  0  0  0  0  0  0
    8.7929   49.6130  132.6354 C   0  0  0  0  0  0  0  0  0  0  0  0
   11.2124   47.1479  133.3823 C   0  0  0  0  0  0  0  0  0  0  0  0
   10.1090   47.9627  133.7057 O   0  0  0  0  0  0  0  0  0  0  0  0
    9.3555   50.5239  133.4684 O   0  0  0  0  0  0  0  0  0  0  0  0
   10.0733   51.6361  133.0737 C   0  0  0  0  0  0  0  0  0  0  0  0
   11.0900   52.0732  134.1190 C   0  0  0  0  0  0  0  0  0  0  0  0
   10.6920   53.4674  134.6218 C   0  0  0  0  0  0  0  0  0  0  0  0
   11.9004   54.1930  134.9244 N   0  0  0  0  0  0  0  0  0  0  0  0
   13.0757   53.4372  134.4321 C   0  0  0  0  0  0  0  0  0  0  0  0
   14.2610   54.3702  134.6968 C   0  0  0  0  0  0  0  0  0  0  0  0
   13.9467   55.3748  135.6120 O   0  0  0  0  0  0  0  0  0  0  0  0
   13.0003   56.2804  135.0929 C   0  0  0  0  0  0  0  0  0  0  0  0
   11.9699   55.4975  134.2684 C   0  0  0  0  0  0  0  0  0  0  0  0
 37 38  1  0  0  0
 38 27  1  0  0  0
 27 28  2  0  0  0
 28 29  1  0  0  0
 29 30  2  0  0  0
 30 26  1  0  0  0
 26  1  1  0  0  0
  1  2  2  0  0  0
  2  3  1  0  0  0
  3  4  2  0  0  0
  4  8  1  0  0  0
  8  9  1  0  0  0
  9 10  2  0  0  0
  9 12  1  0  0  0
 12 13  1  0  0  0
 13 14  1  0  0  0
 12 15  1  0  0  0
 15 16  2  0  0  0
 15 17  1  0  0  0
 17 19  1  0  0  0
 19 20  2  0  0  0
 20 21  1  0  0  0
 21 22  1  0  0  0
 22 23  1  0  0  0
 22 24  1  0  0  0
 24 25  2  0  0  0
  4  5  1  0  0  0
  5  6  2  0  0  0
  6  7  1  0  0  0
 30 31  1  0  0  0
 31 32  2  0  0  0
 32 33  1  0  0  0
 33 34  2  0  0  0
 34 35  1  0  0  0
 35 36  2  0  0  0
 36 39  1  0  0  0
 39 40  1  0  0  0
 40 41  1  0  0  0
 41 42  1  0  0  0
 42 43  1  0  0  0
 43 44  1  0  0  0
 44 45  1  0  0  0
 45 46  1  0  0  0
 46 47  1  0  0  0
 47 48  1  0  0  0
 36 27  1  0  0  0
 48 43  1  0  0  0
 34 29  1  0  0  0
  6  1  1  0  0  0
 14 12  1  0  0  0
 25 19  1  0  0  0
  8 11  1  0  0  0
 17 18  1  0  0  0
M  END
> <minimizedAffinity>
39.44082

> <CNNscore>
0.3170380294

> <CNNaffinity>
7.3934569359

> <CNN_VS>
2.3440070152

> <CNNaffinity_variance>
0.6979932785

$$$$
[H]C1=C([H])C([H])(F)C([H])([H])C([H])=C1N([H])C(=O)C1(C(=O)N([H])c2c([H])c([H])c(Oc3c([H])c([H])nc4c([H])c(OC([H])([H])C([H])([H])C([H])([H])N5C([H])([H])C([H])([H])OC([H])([H])C5([H])[H])c(OC([H])([H])[H])c([H])c34)c(F)c2[H])C([H])([H])C1([H])[H]


 48 53  0  0  0  0  0  0  0  0999 V2000
    7.6980   48.4325  129.4594 C   0  0  0  0  0  0  0  0  0  0  0  0
    7.1384   48.7446  128.2283 C   0  0  0  0  0  0  0  0  0  0  0  0
    6.8775   50.0108  127.7958 C   0  0  0  0  0  0  0  0  0  0  0  0
    7.1854   51.0900  128.6319 C   0  0  0  0  0  0  0  0  0  0  0  0
    7.7399   50.8265  129.8549 C   0  0  0  0  0  0  0  0  0  0  0  0
    7.9977   49.5109  130.2736 C   0  0  0  0  0  0  0  0  0  0  0  0
    8.5722   49.3335  131.4860 F   0  0  0  0  0  0  0  0  0  0  0  0
    6.9449   52.4239  128.1456 N   0  0  0  0  0  0  0  0  0  0  0  0
    7.4395   52.8849  126.9470 C   0  0  0  0  0  0  0  0  0  0  0  0
    8.1781   52.0525  126.2795 O   0  0  0  0  0  0  0  0  0  0  0  0
    6.3904   53.0072  128.7906 H   0  0  0  0  0  0  0  0  0  0  0  0
    7.2827   54.1912  126.2630 C   0  0  0  0  0  0  0  0  0  0  0  0
    8.0032   54.2944  124.9293 C   0  0  0  0  0  0  0  0  0  0  0  0
    8.6615   54.9363  126.0634 C   0  0  0  0  0  0  0  0  0  0  0  0
    6.1681   55.1124  126.4865 C   0  0  0  0  0  0  0  0  0  0  0  0
    5.0060   54.5068  126.5921 O   0  0  0  0  0  0  0  0  0  0  0  0
    6.0800   56.4931  126.6163 N   0  0  0  0  0  0  0  0  0  0  0  0
    6.8895   57.1344  126.5882 H   0  0  0  0  0  0  0  0  0  0  0  0
    4.7882   57.1426  126.8414 C   0  0  0  0  0  0  0  0  0  0  0  0
    3.9096   57.0886  125.8662 C   0  0  0  0  0  0  0  0  0  0  0  0
    2.5692   57.6667  125.8867 C   0  0  0  0  0  0  0  0  0  0  0  0
    2.2180   58.4115  127.1151 C   0  0  0  0  0  0  0  0  0  0  0  0
    1.0606   57.8420  127.7050 F   0  0  0  0  0  0  0  0  0  0  0  0
    3.2646   58.4106  128.1390 C   0  0  0  0  0  0  0  0  0  0  0  0
    4.4475   57.8390  128.0397 C   0  0  0  0  0  0  0  0  0  0  0  0
    7.9400   47.1298  129.8363 O   0  0  0  0  0  0  0  0  0  0  0  0
   10.5384   46.5792  132.9531 C   0  0  0  0  0  0  0  0  0  0  0  0
    9.6594   46.7720  131.9231 C   0  0  0  0  0  0  0  0  0  0  0  0
   10.0026   46.3299  130.6636 C   0  0  0  0  0  0  0  0  0  0  0  0
    9.1291   46.5091  129.5692 C   0  0  0  0  0  0  0  0  0  0  0  0
    9.4930   46.0650  128.3198 C   0  0  0  0  0  0  0  0  0  0  0  0
   10.7035   45.4411  128.1129 C   0  0  0  0  0  0  0  0  0  0  0  0
   11.5316   45.2712  129.1556 N   0  0  0  0  0  0  0  0  0  0  0  0
   11.1936   45.7034  130.4022 C   0  0  0  0  0  0  0  0  0  0  0  0
   12.0811   45.5108  131.4500 C   0  0  0  0  0  0  0  0  0  0  0  0
   11.7665   45.9395  132.7171 C   0  0  0  0  0  0  0  0  0  0  0  0
    9.1872   46.4658  134.9495 C   0  0  0  0  0  0  0  0  0  0  0  0
   10.2981   46.9820  134.2527 O   0  0  0  0  0  0  0  0  0  0  0  0
   12.6242   45.7487  133.7507 O   0  0  0  0  0  0  0  0  0  0  0  0
   12.6671   44.6315  134.5618 C   0  0  0  0  0  0  0  0  0  0  0  0
   12.2307   43.3675  133.8341 C   0  0  0  0  0  0  0  0  0  0  0  0
   10.7237   43.1819  134.0564 C   0  0  0  0  0  0  0  0  0  0  0  0
   10.0836   43.1534  132.7650 N   0  0  0  0  0  0  0  0  0  0  0  0
   10.7902   42.2020  131.8760 C   0  0  0  0  0  0  0  0  0  0  0  0
    9.9388   42.1728  130.6033 C   0  0  0  0  0  0  0  0  0  0  0  0
    9.0717   43.2625  130.5242 O   0  0  0  0  0  0  0  0  0  0  0  0
    8.0743   43.2129  131.5182 C   0  0  0  0  0  0  0  0  0  0  0  0
    8.6990   42.6872  132.8173 C   0  0  0  0  0  0  0  0  0  0  0  0
 37 38  1  0  0  0
 38 27  1  0  0  0
 27 28  2  0  0  0
 28 29  1  0  0  0
 29 30  2  0  0  0
 30 26  1  0  0  0
 26  1  1  0  0  0
  1  2  2  0  0  0
  2  3  1  0  0  0
  3  4  2  0  0  0
  4  8  1  0  0  0
  8  9  1  0  0  0
  9 10  2  0  0  0
  9 12  1  0  0  0
 12 13  1  0  0  0
 13 14  1  0  0  0
 12 15  1  0  0  0
 15 16  2  0  0  0
 15 17  1  0  0  0
 17 19  1  0  0  0
 19 20  2  0  0  0
 20 21  1  0  0  0
 21 22  1  0  0  0
 22 23  1  0  0  0
 22 24  1  0  0  0
 24 25  2  0  0  0
  4  5  1  0  0  0
  5  6  2  0  0  0
  6  7  1  0  0  0
 30 31  1  0  0  0
 31 32  2  0  0  0
 32 33  1  0  0  0
 33 34  2  0  0  0
 34 35  1  0  0  0
 35 36  2  0  0  0
 36 39  1  0  0  0
 39 40  1  0  0  0
 40 41  1  0  0  0
 41 42  1  0  0  0
 42 43  1  0  0  0
 43 44  1  0  0  0
 44 45  1  0  0  0
 45 46  1  0  0  0
 46 47  1  0  0  0
 47 48  1  0  0  0
 36 27  1  0  0  0
 48 43  1  0  0  0
 34 29  1  0  0  0
  6  1  1  0  0  0
 14 12  1  0  0  0
 25 19  1  0  0  0
  8 11  1  0  0  0
 17 18  1  0  0  0
M  END
> <minimizedAffinity>
1.18618

> <CNNscore>
0.3140346110

> <CNNaffinity>
7.7418198586

> <CNN_VS>
2.4311993122

> <CNNaffinity_variance>
0.2609066963

$$$$
[H]C1=C([H])C([H])(F)C([H])([H])C([H])=C1N([H])C(=O)C1(C(=O)N([H])c2c([H])c([H])c(Oc3c([H])c([H])nc4c([H])c(OC([H])([H])C([H])([H])C([H])([H])N5C([H])([H])C([H])([H])OC([H])([H])C5([H])[H])c(OC([H])([H])[H])c([H])c34)c(F)c2[H])C([H])([H])C1([H])[H]


 48 53  0  0  0  0  0  0  0  0999 V2000
   13.6381   42.5878  137.2562 C   0  0  0  0  0  0  0  0  0  0  0  0
   12.2606   42.7479  137.3124 C   0  0  0  0  0  0  0  0  0  0  0  0
   11.5056   43.3046  136.3233 C   0  0  0  0  0  0  0  0  0  0  0  0
   12.1383   43.7549  135.1590 C   0  0  0  0  0  0  0  0  0  0  0  0
   13.4960   43.6149  135.0621 C   0  0  0  0  0  0  0  0  0  0  0  0
   14.2482   43.0369  136.0978 C   0  0  0  0  0  0  0  0  0  0  0  0
   15.5831   42.9094  135.9158 F   0  0  0  0  0  0  0  0  0  0  0  0
   11.3241   44.3012  134.1043 N   0  0  0  0  0  0  0  0  0  0  0  0
   10.5077   43.5279  133.3111 C   0  0  0  0  0  0  0  0  0  0  0  0
   10.5352   42.2513  133.5419 O   0  0  0  0  0  0  0  0  0  0  0  0
   11.4303   45.3200  133.9834 H   0  0  0  0  0  0  0  0  0  0  0  0
    9.5824   43.8940  132.2117 C   0  0  0  0  0  0  0  0  0  0  0  0
    8.5990   42.8019  131.8261 C   0  0  0  0  0  0  0  0  0  0  0  0
    9.7525   42.9639  130.9460 C   0  0  0  0  0  0  0  0  0  0  0  0
    9.2183   45.2671  131.8608 C   0  0  0  0  0  0  0  0  0  0  0  0
    7.9998   45.5929  132.2314 O   0  0  0  0  0  0  0  0  0  0  0  0
    9.8918   46.3017  131.2228 N   0  0  0  0  0  0  0  0  0  0  0  0
   10.8662   46.2422  130.8847 H   0  0  0  0  0  0  0  0  0  0  0  0
    9.2458   47.5977  131.0129 C   0  0  0  0  0  0  0  0  0  0  0  0
    8.6354   47.7869  129.8652 C   0  0  0  0  0  0  0  0  0  0  0  0
    7.9314   48.9992  129.4579 C   0  0  0  0  0  0  0  0  0  0  0  0
    7.9665   50.1111  130.4323 C   0  0  0  0  0  0  0  0  0  0  0  0
    6.6429   50.4792  130.7854 F   0  0  0  0  0  0  0  0  0  0  0  0
    8.6700   49.7977  131.6775 C   0  0  0  0  0  0  0  0  0  0  0  0
    9.2632   48.6578  131.9684 C   0  0  0  0  0  0  0  0  0  0  0  0
   14.3439   42.0133  138.2904 O   0  0  0  0  0  0  0  0  0  0  0  0
   16.4615   38.5294  137.9072 C   0  0  0  0  0  0  0  0  0  0  0  0
   15.7388   39.6837  138.0343 C   0  0  0  0  0  0  0  0  0  0  0  0
   16.4106   40.8720  138.2249 C   0  0  0  0  0  0  0  0  0  0  0  0
   15.7074   42.0881  138.3642 C   0  0  0  0  0  0  0  0  0  0  0  0
   16.3967   43.2619  138.5587 C   0  0  0  0  0  0  0  0  0  0  0  0
   17.7728   43.2753  138.6190 C   0  0  0  0  0  0  0  0  0  0  0  0
   18.4387   42.1175  138.4852 N   0  0  0  0  0  0  0  0  0  0  0  0
   17.7780   40.9422  138.2927 C   0  0  0  0  0  0  0  0  0  0  0  0
   18.5057   39.7690  138.1635 C   0  0  0  0  0  0  0  0  0  0  0  0
   17.8642   38.5690  137.9713 C   0  0  0  0  0  0  0  0  0  0  0  0
   14.6567   36.9810  138.3188 C   0  0  0  0  0  0  0  0  0  0  0  0
   15.8928   37.2852  137.7142 O   0  0  0  0  0  0  0  0  0  0  0  0
   18.5670   37.4167  137.8356 O   0  0  0  0  0  0  0  0  0  0  0  0
   19.3809   37.0945  136.7671 C   0  0  0  0  0  0  0  0  0  0  0  0
   20.6461   36.3662  137.1985 C   0  0  0  0  0  0  0  0  0  0  0  0
   21.2272   37.0948  138.4177 C   0  0  0  0  0  0  0  0  0  0  0  0
   20.7154   36.4554  139.6039 N   0  0  0  0  0  0  0  0  0  0  0  0
   21.2596   35.0814  139.7075 C   0  0  0  0  0  0  0  0  0  0  0  0
   20.7480   34.5747  141.0591 C   0  0  0  0  0  0  0  0  0  0  0  0
   19.6856   35.3394  141.5407 O   0  0  0  0  0  0  0  0  0  0  0  0
   20.0898   36.6466  141.8771 C   0  0  0  0  0  0  0  0  0  0  0  0
   21.1121   37.1286  140.8394 C   0  0  0  0  0  0  0  0  0  0  0  0
 37 38  1  0  0  0
 38 27  1  0  0  0
 27 28  2  0  0  0
 28 29  1  0  0  0
 29 30  2  0  0  0
 30 26  1  0  0  0
 26  1  1  0  0  0
  1  2  2  0  0  0
  2  3  1  0  0  0
  3  4  2  0  0  0
  4  8  1  0  0  0
  8  9  1  0  0  0
  9 10  2  0  0  0
  9 12  1  0  0  0
 12 13  1  0  0  0
 13 14  1  0  0  0
 12 15  1  0  0  0
 15 16  2  0  0  0
 15 17  1  0  0  0
 17 19  1  0  0  0
 19 20  2  0  0  0
 20 21  1  0  0  0
 21 22  1  0  0  0
 22 23  1  0  0  0
 22 24  1  0  0  0
 24 25  2  0  0  0
  4  5  1  0  0  0
  5  6  2  0  0  0
  6  7  1  0  0  0
 30 31  1  0  0  0
 31 32  2  0  0  0
 32 33  1  0  0  0
 33 34  2  0  0  0
 34 35  1  0  0  0
 35 36  2  0  0  0
 36 39  1  0  0  0
 39 40  1  0  0  0
 40 41  1  0  0  0
 41 42  1  0  0  0
 42 43  1  0  0  0
 43 44  1  0  0  0
 44 45  1  0  0  0
 45 46  1  0  0  0
 46 47  1  0  0  0
 47 48  1  0  0  0
 36 27  1  0  0  0
 48 43  1  0  0  0
 34 29  1  0  0  0
  6  1  1  0  0  0
 14 12  1  0  0  0
 25 19  1  0  0  0
  8 11  1  0  0  0
 17 18  1  0  0  0
M  END
> <minimizedAffinity>
10.89422

> <CNNscore>
0.3048553169

> <CNNaffinity>
7.3464965820

> <CNN_VS>
2.2396185398

> <CNNaffinity_variance>
0.1737456173

$$$$
[H]C1=C([H])C([H])(F)C([H])([H])C([H])=C1N([H])C(=O)C1(C(=O)N([H])c2c([H])c([H])c(Oc3c([H])c([H])nc4c([H])c(OC([H])([H])C([H])([H])C([H])([H])N5C([H])([H])C([H])([H])OC([H])([H])C5([H])[H])c(OC([H])([H])[H])c([H])c34)c(F)c2[H])C([H])([H])C1([H])[H]


 48 53  0  0  0  0  0  0  0  0999 V2000
    6.8481   48.2688  129.1345 C   0  0  0  0  0  0  0  0  0  0  0  0
    5.7481   49.0631  128.8422 C   0  0  0  0  0  0  0  0  0  0  0  0
    5.8070   50.3990  128.5773 C   0  0  0  0  0  0  0  0  0  0  0  0
    7.0511   51.0397  128.5952 C   0  0  0  0  0  0  0  0  0  0  0  0
    8.1623   50.2928  128.8781 C   0  0  0  0  0  0  0  0  0  0  0  0
    8.0708   48.9173  129.1468 C   0  0  0  0  0  0  0  0  0  0  0  0
    9.2180   48.2425  129.3917 F   0  0  0  0  0  0  0  0  0  0  0  0
    7.1044   52.4418  128.2713 N   0  0  0  0  0  0  0  0  0  0  0  0
    7.4166   52.9092  127.0152 C   0  0  0  0  0  0  0  0  0  0  0  0
    7.7013   52.0064  126.1277 O   0  0  0  0  0  0  0  0  0  0  0  0
    6.9123   53.0608  129.0737 H   0  0  0  0  0  0  0  0  0  0  0  0
    7.4930   54.2890  126.4773 C   0  0  0  0  0  0  0  0  0  0  0  0
    8.7236   54.5678  125.6308 C   0  0  0  0  0  0  0  0  0  0  0  0
    8.7623   55.0705  127.0009 C   0  0  0  0  0  0  0  0  0  0  0  0
    6.3361   55.1608  126.2712 C   0  0  0  0  0  0  0  0  0  0  0  0
    6.2874   56.1684  127.1143 O   0  0  0  0  0  0  0  0  0  0  0  0
    5.2802   55.1510  125.3679 N   0  0  0  0  0  0  0  0  0  0  0  0
    5.1633   54.4534  124.6149 H   0  0  0  0  0  0  0  0  0  0  0  0
    4.2486   56.1877  125.4116 C   0  0  0  0  0  0  0  0  0  0  0  0
    4.4263   57.2458  124.6535 C   0  0  0  0  0  0  0  0  0  0  0  0
    3.5219   58.3869  124.5482 C   0  0  0  0  0  0  0  0  0  0  0  0
    2.3293   58.3342  125.4212 C   0  0  0  0  0  0  0  0  0  0  0  0
    1.1543   58.4116  124.6305 F   0  0  0  0  0  0  0  0  0  0  0  0
    2.2252   57.1144  126.2242 C   0  0  0  0  0  0  0  0  0  0  0  0
    3.0877   56.1186  126.2390 C   0  0  0  0  0  0  0  0  0  0  0  0
    6.7216   46.9211  129.3903 O   0  0  0  0  0  0  0  0  0  0  0  0
    9.6480   44.0708  129.6748 C   0  0  0  0  0  0  0  0  0  0  0  0
    8.6729   45.0233  129.5619 C   0  0  0  0  0  0  0  0  0  0  0  0
    7.9915   45.4157  130.6939 C   0  0  0  0  0  0  0  0  0  0  0  0
    6.9752   46.3930  130.6261 C   0  0  0  0  0  0  0  0  0  0  0  0
    6.3041   46.7667  131.7666 C   0  0  0  0  0  0  0  0  0  0  0  0
    6.6079   46.2025  132.9859 C   0  0  0  0  0  0  0  0  0  0  0  0
    7.5754   45.2741  133.0474 N   0  0  0  0  0  0  0  0  0  0  0  0
    8.2533   44.8870  131.9314 C   0  0  0  0  0  0  0  0  0  0  0  0
    9.2427   43.9216  132.0400 C   0  0  0  0  0  0  0  0  0  0  0  0
    9.9401   43.5109  130.9296 C   0  0  0  0  0  0  0  0  0  0  0  0
    9.8039   43.5221  127.3298 C   0  0  0  0  0  0  0  0  0  0  0  0
   10.3914   43.6034  128.6082 O   0  0  0  0  0  0  0  0  0  0  0  0
   10.9154   42.5729  131.0263 O   0  0  0  0  0  0  0  0  0  0  0  0
   12.1349   42.7454  131.6516 C   0  0  0  0  0  0  0  0  0  0  0  0
   11.9899   43.2564  133.0782 C   0  0  0  0  0  0  0  0  0  0  0  0
   12.8653   44.5075  133.2312 C   0  0  0  0  0  0  0  0  0  0  0  0
   12.0008   45.6216  133.5302 N   0  0  0  0  0  0  0  0  0  0  0  0
   11.5355   46.2474  132.2706 C   0  0  0  0  0  0  0  0  0  0  0  0
   10.5369   47.3151  132.7271 C   0  0  0  0  0  0  0  0  0  0  0  0
   10.6732   47.6193  134.0815 O   0  0  0  0  0  0  0  0  0  0  0  0
   10.3047   46.5353  134.9027 C   0  0  0  0  0  0  0  0  0  0  0  0
   10.7874   45.2345  134.2476 C   0  0  0  0  0  0  0  0  0  0  0  0
 37 38  1  0  0  0
 38 27  1  0  0  0
 27 28  2  0  0  0
 28 29  1  0  0  0
 29 30  2  0  0  0
 30 26  1  0  0  0
 26  1  1  0  0  0
  1  2  2  0  0  0
  2  3  1  0  0  0
  3  4  2  0  0  0
  4  8  1  0  0  0
  8  9  1  0  0  0
  9 10  2  0  0  0
  9 12  1  0  0  0
 12 13  1  0  0  0
 13 14  1  0  0  0
 12 15  1  0  0  0
 15 16  2  0  0  0
 15 17  1  0  0  0
 17 19  1  0  0  0
 19 20  2  0  0  0
 20 21  1  0  0  0
 21 22  1  0  0  0
 22 23  1  0  0  0
 22 24  1  0  0  0
 24 25  2  0  0  0
  4  5  1  0  0  0
  5  6  2  0  0  0
  6  7  1  0  0  0
 30 31  1  0  0  0
 31 32  2  0  0  0
 32 33  1  0  0  0
 33 34  2  0  0  0
 34 35  1  0  0  0
 35 36  2  0  0  0
 36 39  1  0  0  0
 39 40  1  0  0  0
 40 41  1  0  0  0
 41 42  1  0  0  0
 42 43  1  0  0  0
 43 44  1  0  0  0
 44 45  1  0  0  0
 45 46  1  0  0  0
 46 47  1  0  0  0
 47 48  1  0  0  0
 36 27  1  0  0  0
 48 43  1  0  0  0
 34 29  1  0  0  0
  6  1  1  0  0  0
 14 12  1  0  0  0
 25 19  1  0  0  0
  8 11  1  0  0  0
 17 18  1  0  0  0
M  END
> <minimizedAffinity>
6.54838

> <CNNscore>
0.2962993383

> <CNNaffinity>
7.5096025467

> <CNN_VS>
2.2250902653

> <CNNaffinity_variance>
0.3762787282

$$$$
[H]N=C(N([H])[H])N([H])C([H])([H])C([H])([H])C([H])([H])[C@@]([H])(C(=O)c1nc2c([H])c([H])c([H])c([H])c2o1)N([H])C(=O)[C@@]([H])(N([H])C(=O)[C@@]1([H])N(C(=O)[C@]([H])(N([H])C(=O)OC([H])([H])c2c([H])c([H])c([H])c([H])c2[H])C([H])([H])c2c([H])c([H])c([H])c([H])c2[H])C([H])([H])C([H])([H])C1([H])[H])C([H])([H])C([H])([H])C([H])([H])N([H])C(=N[H])N([H])[H]


 70 74  0  0  0  0  0  0  0  0999 V2000
    7.2704   51.0695  128.8653 C   0  0  0  0  0  0  0  0  0  0  0  0
    7.6331   50.8954  130.2414 N   0  0  0  0  0  0  0  0  0  0  0  0
    8.4603   49.7577  130.6388 C   0  0  0  0  0  0  0  0  0  0  0  0
    8.7838   49.0383  129.6758 O   0  0  0  0  0  0  0  0  0  0  0  0
    7.3471   51.5338  130.9958 H   0  0  0  0  0  0  0  0  0  0  0  0
    8.7902   49.6132  132.0470 C   0  0  0  0  0  0  0  0  0  0  0  0
    9.5720   50.8645  132.4346 C   0  0  0  0  0  0  0  0  0  0  0  0
   10.2487   50.3888  133.7163 C   0  0  0  0  0  0  0  0  0  0  0  0
   10.6900   49.0310  133.2826 C   0  0  0  0  0  0  0  0  0  0  0  0
    9.4896   48.4904  132.5281 N   0  0  0  0  0  0  0  0  0  0  0  0
    9.3549   47.1003  132.4756 C   0  0  0  0  0  0  0  0  0  0  0  0
   10.2292   46.4005  133.1812 O   0  0  0  0  0  0  0  0  0  0  0  0
    8.4210   46.2226  131.7875 C   0  0  0  0  0  0  0  0  0  0  0  0
    8.7416   44.8007  132.0352 N   0  0  0  0  0  0  0  0  0  0  0  0
    8.2722   44.1182  133.1606 C   0  0  0  0  0  0  0  0  0  0  0  0
    7.5495   44.7165  133.9905 O   0  0  0  0  0  0  0  0  0  0  0  0
    9.3318   44.3054  131.3438 H   0  0  0  0  0  0  0  0  0  0  0  0
    8.5839   42.8034  133.3713 O   0  0  0  0  0  0  0  0  0  0  0  0
    9.8380   42.2230  133.2495 C   0  0  0  0  0  0  0  0  0  0  0  0
   10.9664   43.1090  132.9869 C   0  0  0  0  0  0  0  0  0  0  0  0
   11.5944   43.8259  133.9729 C   0  0  0  0  0  0  0  0  0  0  0  0
   12.6878   44.6594  133.7072 C   0  0  0  0  0  0  0  0  0  0  0  0
   13.0978   44.7181  132.3924 C   0  0  0  0  0  0  0  0  0  0  0  0
   12.4924   44.0127  131.3723 C   0  0  0  0  0  0  0  0  0  0  0  0
   11.4262   43.2138  131.6986 C   0  0  0  0  0  0  0  0  0  0  0  0
    8.4229   46.3962  130.2632 C   0  0  0  0  0  0  0  0  0  0  0  0
    9.1839   45.4227  129.5144 C   0  0  0  0  0  0  0  0  0  0  0  0
    8.7140   44.1417  129.3451 C   0  0  0  0  0  0  0  0  0  0  0  0
    9.3922   43.1867  128.6173 C   0  0  0  0  0  0  0  0  0  0  0  0
   10.5882   43.5210  128.0338 C   0  0  0  0  0  0  0  0  0  0  0  0
   11.0827   44.7867  128.1838 C   0  0  0  0  0  0  0  0  0  0  0  0
   10.3813   45.7399  128.9247 C   0  0  0  0  0  0  0  0  0  0  0  0
    7.0587   52.5201  128.4968 C   0  0  0  0  0  0  0  0  0  0  0  0
    7.0040   53.4275  129.3529 O   0  0  0  0  0  0  0  0  0  0  0  0
    6.9298   52.8017  127.1305 N   0  0  0  0  0  0  0  0  0  0  0  0
    6.9843   52.0362  126.4238 H   0  0  0  0  0  0  0  0  0  0  0  0
    6.7220   54.1328  126.5776 C   0  0  0  0  0  0  0  0  0  0  0  0
    8.0007   54.7144  126.1363 C   0  0  0  0  0  0  0  0  0  0  0  0
    8.9741   54.8634  126.9665 O   0  0  0  0  0  0  0  0  0  0  0  0
    8.1865   55.1308  124.7507 C   0  0  0  0  0  0  0  0  0  0  0  0
    9.0917   55.9348  124.1943 N   0  0  0  0  0  0  0  0  0  0  0  0
    8.9107   56.0542  122.8723 C   0  0  0  0  0  0  0  0  0  0  0  0
    9.5227   56.7240  121.8504 C   0  0  0  0  0  0  0  0  0  0  0  0
    9.0659   56.6315  120.5328 C   0  0  0  0  0  0  0  0  0  0  0  0
    7.9696   55.8398  120.2761 C   0  0  0  0  0  0  0  0  0  0  0  0
    7.3556   55.1654  121.3145 C   0  0  0  0  0  0  0  0  0  0  0  0
    7.8072   55.2591  122.6084 C   0  0  0  0  0  0  0  0  0  0  0  0
    7.4140   54.7361  123.7408 O   0  0  0  0  0  0  0  0  0  0  0  0
    6.0334   55.0076  127.6376 C   0  0  0  0  0  0  0  0  0  0  0  0
    5.7673   56.3581  127.0408 C   0  0  0  0  0  0  0  0  0  0  0  0
    4.8568   56.3418  125.8392 C   0  0  0  0  0  0  0  0  0  0  0  0
    4.4798   54.9673  125.5690 N   0  0  0  0  0  0  0  0  0  0  0  0
    4.6628   54.2419  126.2860 H   0  0  0  0  0  0  0  0  0  0  0  0
    3.8673   54.5313  124.3741 C   0  0  0  0  0  0  0  0  0  0  0  0
    2.7173   53.7031  124.4606 N   0  0  0  0  0  0  0  0  0  0  0  0
    4.3046   54.8539  123.2061 N   0  0  0  0  0  0  0  0  0  0  0  0
    1.7636   54.1149  124.5240 H   0  0  0  0  0  0  0  0  0  0  0  0
    2.8496   52.6749  124.4580 H   0  0  0  0  0  0  0  0  0  0  0  0
    3.8450   54.5260  122.3531 H   0  0  0  0  0  0  0  0  0  0  0  0
    5.9574   50.3977  128.5539 C   0  0  0  0  0  0  0  0  0  0  0  0
    5.1956   50.0457  129.8131 C   0  0  0  0  0  0  0  0  0  0  0  0
    4.1044   49.0487  129.5864 C   0  0  0  0  0  0  0  0  0  0  0  0
    4.4663   47.9850  128.6765 N   0  0  0  0  0  0  0  0  0  0  0  0
    3.8272   47.7714  127.8776 H   0  0  0  0  0  0  0  0  0  0  0  0
    5.7854   46.4063  130.0150 N   0  0  0  0  0  0  0  0  0  0  0  0
    5.6762   47.2666  128.8976 C   0  0  0  0  0  0  0  0  0  0  0  0
    6.6625   47.4042  128.0846 N   0  0  0  0  0  0  0  0  0  0  0  0
    6.7166   46.0036  130.2523 H   0  0  0  0  0  0  0  0  0  0  0  0
    4.9447   46.1936  130.5731 H   0  0  0  0  0  0  0  0  0  0  0  0
    6.5664   48.0315  127.2795 H   0  0  0  0  0  0  0  0  0  0  0  0
 65 66  1  0  0  0
 66 67  2  0  0  0
 66 63  1  0  0  0
 63 62  1  0  0  0
 62 61  1  0  0  0
 61 60  1  0  0  0
 60  1  1  0  0  0
  1  2  1  0  0  0
  2  3  1  0  0  0
  3  4  2  0  0  0
  3  6  1  0  0  0
  6  7  1  0  0  0
  7  8  1  0  0  0
  8  9  1  0  0  0
  9 10  1  0  0  0
 10 11  1  0  0  0
 11 12  2  0  0  0
 11 13  1  0  0  0
 13 26  1  0  0  0
 26 27  1  0  0  0
 27 28  2  0  0  0
 28 29  1  0  0  0
 29 30  2  0  0  0
 30 31  1  0  0  0
 31 32  2  0  0  0
 13 14  1  0  0  0
 14 15  1  0  0  0
 15 16  2  0  0  0
 15 18  1  0  0  0
 18 19  1  0  0  0
 19 20  1  0  0  0
 20 21  2  0  0  0
 21 22  1  0  0  0
 22 23  2  0  0  0
 23 24  1  0  0  0
 24 25  2  0  0  0
  1 33  1  0  0  0
 33 34  2  0  0  0
 33 35  1  0  0  0
 35 37  1  0  0  0
 37 49  1  0  0  0
 49 50  1  0  0  0
 50 51  1  0  0  0
 51 52  1  0  0  0
 52 54  1  0  0  0
 54 55  1  0  0  0
 54 56  2  0  0  0
 37 38  1  0  0  0
 38 39  2  0  0  0
 38 40  1  0  0  0
 40 41  2  0  0  0
 41 42  1  0  0  0
 42 43  2  0  0  0
 43 44  1  0  0  0
 44 45  2  0  0  0
 45 46  1  0  0  0
 46 47  2  0  0  0
 47 48  1  0  0  0
 10  6  1  0  0  0
 32 27  1  0  0  0
 25 20  1  0  0  0
 48 40  1  0  0  0
 47 42  1  0  0  0
 65 68  1  0  0  0
 65 69  1  0  0  0
 67 70  1  0  0  0
 63 64  1  0  0  0
  2  5  1  0  0  0
 14 17  1  0  0  0
 35 36  1  0  0  0
 52 53  1  0  0  0
 55 57  1  0  0  0
 55 58  1  0  0  0
 56 59  1  0  0  0
M  END
> <minimizedAffinity>
3.53368

> <CNNscore>
0.5616996288

> <CNNaffinity>
8.4184370041

> <CNN_VS>
4.7286329269

> <CNNaffinity_variance>
0.2479258478

$$$$
[H]N=C(N([H])[H])N([H])C([H])([H])C([H])([H])C([H])([H])[C@@]([H])(C(=O)c1nc2c([H])c([H])c([H])c([H])c2o1)N([H])C(=O)[C@@]([H])(N([H])C(=O)[C@@]1([H])N(C(=O)[C@]([H])(N([H])C(=O)OC([H])([H])c2c([H])c([H])c([H])c([H])c2[H])C([H])([H])c2c([H])c([H])c([H])c([H])c2[H])C([H])([H])C([H])([H])C1([H])[H])C([H])([H])C([H])([H])C([H])([H])N([H])C(=N[H])N([H])[H]


 70 74  0  0  0  0  0  0  0  0999 V2000
    9.4478   47.9820  129.6673 C   0  0  0  0  0  0  0  0  0  0  0  0
   10.0203   46.8720  128.9634 N   0  0  0  0  0  0  0  0  0  0  0  0
   10.2990   45.6246  129.6726 C   0  0  0  0  0  0  0  0  0  0  0  0
    9.9738   45.6707  130.8733 O   0  0  0  0  0  0  0  0  0  0  0  0
   10.2559   46.8869  127.9621 H   0  0  0  0  0  0  0  0  0  0  0  0
   10.8938   44.5313  128.9218 C   0  0  0  0  0  0  0  0  0  0  0  0
   11.0184   45.0184  127.4815 C   0  0  0  0  0  0  0  0  0  0  0  0
   11.1765   43.6907  126.7472 C   0  0  0  0  0  0  0  0  0  0  0  0
   10.1274   42.8888  127.4421 C   0  0  0  0  0  0  0  0  0  0  0  0
   10.3141   43.2488  128.9043 N   0  0  0  0  0  0  0  0  0  0  0  0
    9.8955   42.3014  129.8426 C   0  0  0  0  0  0  0  0  0  0  0  0
    9.4788   41.1423  129.3580 O   0  0  0  0  0  0  0  0  0  0  0  0
    9.8197   42.3147  131.2952 C   0  0  0  0  0  0  0  0  0  0  0  0
    9.2309   43.5780  131.7885 N   0  0  0  0  0  0  0  0  0  0  0  0
    8.2698   43.6038  132.8026 C   0  0  0  0  0  0  0  0  0  0  0  0
    7.8914   42.5297  133.3242 O   0  0  0  0  0  0  0  0  0  0  0  0
    9.5512   44.4654  131.3624 H   0  0  0  0  0  0  0  0  0  0  0  0
    7.7363   44.7841  133.2413 O   0  0  0  0  0  0  0  0  0  0  0  0
    8.3597   46.0235  133.2372 C   0  0  0  0  0  0  0  0  0  0  0  0
    8.6405   46.6393  134.5291 C   0  0  0  0  0  0  0  0  0  0  0  0
    9.6646   46.2270  135.3426 C   0  0  0  0  0  0  0  0  0  0  0  0
    9.9322   46.8400  136.5729 C   0  0  0  0  0  0  0  0  0  0  0  0
    9.1036   47.8854  136.9203 C   0  0  0  0  0  0  0  0  0  0  0  0
    8.0631   48.3295  136.1298 C   0  0  0  0  0  0  0  0  0  0  0  0
    7.8536   47.6867  134.9363 C   0  0  0  0  0  0  0  0  0  0  0  0
   11.1850   42.1885  131.9834 C   0  0  0  0  0  0  0  0  0  0  0  0
   11.7447   43.4109  132.5124 C   0  0  0  0  0  0  0  0  0  0  0  0
   11.6241   43.7202  133.8467 C   0  0  0  0  0  0  0  0  0  0  0  0
   12.1638   44.8615  134.4013 C   0  0  0  0  0  0  0  0  0  0  0  0
   12.8522   45.7314  133.5938 C   0  0  0  0  0  0  0  0  0  0  0  0
   12.9896   45.4526  132.2625 C   0  0  0  0  0  0  0  0  0  0  0  0
   12.4357   44.2917  131.7193 C   0  0  0  0  0  0  0  0  0  0  0  0
    8.2909   48.6100  128.9243 C   0  0  0  0  0  0  0  0  0  0  0  0
    7.7238   48.0441  127.9665 O   0  0  0  0  0  0  0  0  0  0  0  0
    7.8771   49.8717  129.3708 N   0  0  0  0  0  0  0  0  0  0  0  0
    8.3540   50.3318  130.1767 H   0  0  0  0  0  0  0  0  0  0  0  0
    6.7836   50.6366  128.7877 C   0  0  0  0  0  0  0  0  0  0  0  0
    7.0110   52.0805  128.9649 C   0  0  0  0  0  0  0  0  0  0  0  0
    7.0244   52.6022  130.1423 O   0  0  0  0  0  0  0  0  0  0  0  0
    7.2259   52.9442  127.8091 C   0  0  0  0  0  0  0  0  0  0  0  0
    7.6047   52.6587  126.5639 N   0  0  0  0  0  0  0  0  0  0  0  0
    7.6806   53.7561  125.7992 C   0  0  0  0  0  0  0  0  0  0  0  0
    8.0051   54.0317  124.5007 C   0  0  0  0  0  0  0  0  0  0  0  0
    7.9838   55.3357  123.9983 C   0  0  0  0  0  0  0  0  0  0  0  0
    7.6236   56.3569  124.8481 C   0  0  0  0  0  0  0  0  0  0  0  0
    7.2968   56.0707  126.1602 C   0  0  0  0  0  0  0  0  0  0  0  0
    7.3193   54.7877  126.6505 C   0  0  0  0  0  0  0  0  0  0  0  0
    7.0608   54.2651  127.8212 O   0  0  0  0  0  0  0  0  0  0  0  0
    5.4635   50.1840  129.4324 C   0  0  0  0  0  0  0  0  0  0  0  0
    4.9991   48.9363  128.7409 C   0  0  0  0  0  0  0  0  0  0  0  0
    4.7487   47.7683  129.6608 C   0  0  0  0  0  0  0  0  0  0  0  0
    5.6111   46.6741  129.2566 N   0  0  0  0  0  0  0  0  0  0  0  0
    5.4731   46.2375  128.3269 H   0  0  0  0  0  0  0  0  0  0  0  0
    6.6502   46.1452  130.0525 C   0  0  0  0  0  0  0  0  0  0  0  0
    6.8457   46.6722  131.3564 N   0  0  0  0  0  0  0  0  0  0  0  0
    7.4293   45.2021  129.6489 N   0  0  0  0  0  0  0  0  0  0  0  0
    6.3359   46.2805  132.1749 H   0  0  0  0  0  0  0  0  0  0  0  0
    7.5111   47.4582  131.4753 H   0  0  0  0  0  0  0  0  0  0  0  0
    8.1766   44.8341  130.2427 H   0  0  0  0  0  0  0  0  0  0  0  0
   10.4465   49.0981  129.8387 C   0  0  0  0  0  0  0  0  0  0  0  0
   11.3932   48.8311  130.9885 C   0  0  0  0  0  0  0  0  0  0  0  0
   10.7057   48.3280  132.2175 C   0  0  0  0  0  0  0  0  0  0  0  0
   10.0989   49.3706  133.0144 N   0  0  0  0  0  0  0  0  0  0  0  0
   10.4665   49.5416  133.9778 H   0  0  0  0  0  0  0  0  0  0  0  0
    9.2200   51.4928  132.1497 N   0  0  0  0  0  0  0  0  0  0  0  0
    9.0255   50.1273  132.4630 C   0  0  0  0  0  0  0  0  0  0  0  0
    7.8866   49.5686  132.2546 N   0  0  0  0  0  0  0  0  0  0  0  0
    8.3946   52.0731  131.8898 H   0  0  0  0  0  0  0  0  0  0  0  0
   10.1716   51.8886  132.1841 H   0  0  0  0  0  0  0  0  0  0  0  0
    7.7628   48.5779  132.4870 H   0  0  0  0  0  0  0  0  0  0  0  0
 65 66  1  0  0  0
 66 67  2  0  0  0
 66 63  1  0  0  0
 63 62  1  0  0  0
 62 61  1  0  0  0
 61 60  1  0  0  0
 60  1  1  0  0  0
  1  2  1  0  0  0
  2  3  1  0  0  0
  3  4  2  0  0  0
  3  6  1  0  0  0
  6  7  1  0  0  0
  7  8  1  0  0  0
  8  9  1  0  0  0
  9 10  1  0  0  0
 10 11  1  0  0  0
 11 12  2  0  0  0
 11 13  1  0  0  0
 13 26  1  0  0  0
 26 27  1  0  0  0
 27 28  2  0  0  0
 28 29  1  0  0  0
 29 30  2  0  0  0
 30 31  1  0  0  0
 31 32  2  0  0  0
 13 14  1  0  0  0
 14 15  1  0  0  0
 15 16  2  0  0  0
 15 18  1  0  0  0
 18 19  1  0  0  0
 19 20  1  0  0  0
 20 21  2  0  0  0
 21 22  1  0  0  0
 22 23  2  0  0  0
 23 24  1  0  0  0
 24 25  2  0  0  0
  1 33  1  0  0  0
 33 34  2  0  0  0
 33 35  1  0  0  0
 35 37  1  0  0  0
 37 49  1  0  0  0
 49 50  1  0  0  0
 50 51  1  0  0  0
 51 52  1  0  0  0
 52 54  1  0  0  0
 54 55  1  0  0  0
 54 56  2  0  0  0
 37 38  1  0  0  0
 38 39  2  0  0  0
 38 40  1  0  0  0
 40 41  2  0  0  0
 41 42  1  0  0  0
 42 43  2  0  0  0
 43 44  1  0  0  0
 44 45  2  0  0  0
 45 46  1  0  0  0
 46 47  2  0  0  0
 47 48  1  0  0  0
 10  6  1  0  0  0
 32 27  1  0  0  0
 25 20  1  0  0  0
 48 40  1  0  0  0
 47 42  1  0  0  0
 65 68  1  0  0  0
 65 69  1  0  0  0
 67 70  1  0  0  0
 63 64  1  0  0  0
  2  5  1  0  0  0
 14 17  1  0  0  0
 35 36  1  0  0  0
 52 53  1  0  0  0
 55 57  1  0  0  0
 55 58  1  0  0  0
 56 59  1  0  0  0
M  END
> <minimizedAffinity>
8.56457

> <CNNscore>
0.5441738963

> <CNNaffinity>
8.7146911621

> <CNN_VS>
4.7423076630

> <CNNaffinity_variance>
0.6558399200

$$$$
[H]N=C(N([H])[H])N([H])C([H])([H])C([H])([H])C([H])([H])[C@@]([H])(C(=O)c1nc2c([H])c([H])c([H])c([H])c2o1)N([H])C(=O)[C@@]([H])(N([H])C(=O)[C@@]1([H])N(C(=O)[C@]([H])(N([H])C(=O)OC([H])([H])c2c([H])c([H])c([H])c([H])c2[H])C([H])([H])c2c([H])c([H])c([H])c([H])c2[H])C([H])([H])C([H])([H])C1([H])[H])C([H])([H])C([H])([H])C([H])([H])N([H])C(=N[H])N([H])[H]


 70 74  0  0  0  0  0  0  0  0999 V2000
    8.6241   45.1532  129.5114 C   0  0  0  0  0  0  0  0  0  0  0  0
    7.4544   45.7949  130.0362 N   0  0  0  0  0  0  0  0  0  0  0  0
    6.8940   46.9599  129.3539 C   0  0  0  0  0  0  0  0  0  0  0  0
    7.5280   47.2677  128.3278 O   0  0  0  0  0  0  0  0  0  0  0  0
    6.9615   45.4855  130.8846 H   0  0  0  0  0  0  0  0  0  0  0  0
    5.7165   47.5872  129.9308 C   0  0  0  0  0  0  0  0  0  0  0  0
    4.6065   46.5418  129.8817 C   0  0  0  0  0  0  0  0  0  0  0  0
    3.3759   47.4293  130.0398 C   0  0  0  0  0  0  0  0  0  0  0  0
    3.7421   48.5401  129.1132 C   0  0  0  0  0  0  0  0  0  0  0  0
    5.2045   48.7971  129.4258 N   0  0  0  0  0  0  0  0  0  0  0  0
    5.6875   50.0811  129.1583 C   0  0  0  0  0  0  0  0  0  0  0  0
    4.7928   50.9719  128.7611 O   0  0  0  0  0  0  0  0  0  0  0  0
    7.0144   50.6731  129.2289 C   0  0  0  0  0  0  0  0  0  0  0  0
    7.2720   51.5487  128.0658 N   0  0  0  0  0  0  0  0  0  0  0  0
    7.1407   52.9380  128.1379 C   0  0  0  0  0  0  0  0  0  0  0  0
    6.8015   53.4723  129.2188 O   0  0  0  0  0  0  0  0  0  0  0  0
    7.5607   51.1060  127.1756 H   0  0  0  0  0  0  0  0  0  0  0  0
    7.3812   53.7286  127.0482 O   0  0  0  0  0  0  0  0  0  0  0  0
    8.3116   53.4923  126.0467 C   0  0  0  0  0  0  0  0  0  0  0  0
    8.3829   54.4559  124.9541 C   0  0  0  0  0  0  0  0  0  0  0  0
    8.8412   54.1297  123.7035 C   0  0  0  0  0  0  0  0  0  0  0  0
    8.8875   55.0622  122.6599 C   0  0  0  0  0  0  0  0  0  0  0  0
    8.4442   56.3317  122.9634 C   0  0  0  0  0  0  0  0  0  0  0  0
    7.9762   56.6990  124.2088 C   0  0  0  0  0  0  0  0  0  0  0  0
    7.9564   55.7387  125.1880 C   0  0  0  0  0  0  0  0  0  0  0  0
    8.1488   49.6404  129.2391 C   0  0  0  0  0  0  0  0  0  0  0  0
    8.8861   49.5195  130.4757 C   0  0  0  0  0  0  0  0  0  0  0  0
    8.6805   50.4057  131.5068 C   0  0  0  0  0  0  0  0  0  0  0  0
    9.3412   50.3147  132.7137 C   0  0  0  0  0  0  0  0  0  0  0  0
   10.2445   49.2992  132.9021 C   0  0  0  0  0  0  0  0  0  0  0  0
   10.4717   48.4018  131.8960 C   0  0  0  0  0  0  0  0  0  0  0  0
    9.7929   48.5106  130.6808 C   0  0  0  0  0  0  0  0  0  0  0  0
    8.8944   43.8139  130.1580 C   0  0  0  0  0  0  0  0  0  0  0  0
    8.1925   42.8065  129.9306 O   0  0  0  0  0  0  0  0  0  0  0  0
    9.9874   43.7554  131.0324 N   0  0  0  0  0  0  0  0  0  0  0  0
   10.5710   44.6019  131.2092 H   0  0  0  0  0  0  0  0  0  0  0  0
   10.4086   42.5597  131.7491 C   0  0  0  0  0  0  0  0  0  0  0  0
    9.9878   42.6270  133.1585 C   0  0  0  0  0  0  0  0  0  0  0  0
    9.9450   41.5619  133.8813 O   0  0  0  0  0  0  0  0  0  0  0  0
    9.6132   43.9021  133.7599 C   0  0  0  0  0  0  0  0  0  0  0  0
    8.6229   44.7459  133.4724 N   0  0  0  0  0  0  0  0  0  0  0  0
    8.6278   45.8172  134.2768 C   0  0  0  0  0  0  0  0  0  0  0  0
    7.8714   46.9463  134.4189 C   0  0  0  0  0  0  0  0  0  0  0  0
    8.1558   47.9039  135.3963 C   0  0  0  0  0  0  0  0  0  0  0  0
    9.2298   47.6872  136.2294 C   0  0  0  0  0  0  0  0  0  0  0  0
    9.9906   46.5430  136.0799 C   0  0  0  0  0  0  0  0  0  0  0  0
    9.7082   45.6042  135.1177 C   0  0  0  0  0  0  0  0  0  0  0  0
   10.2583   44.4673  134.7782 O   0  0  0  0  0  0  0  0  0  0  0  0
   11.9331   42.4135  131.6156 C   0  0  0  0  0  0  0  0  0  0  0  0
   12.5885   43.3948  132.5420 C   0  0  0  0  0  0  0  0  0  0  0  0
   12.5860   44.8189  132.0470 C   0  0  0  0  0  0  0  0  0  0  0  0
   13.6898   44.9836  131.1203 N   0  0  0  0  0  0  0  0  0  0  0  0
   14.5494   45.4676  131.4378 H   0  0  0  0  0  0  0  0  0  0  0  0
   13.6828   44.5231  129.7858 C   0  0  0  0  0  0  0  0  0  0  0  0
   14.9217   44.3845  129.1061 N   0  0  0  0  0  0  0  0  0  0  0  0
   12.6005   44.2201  129.1564 N   0  0  0  0  0  0  0  0  0  0  0  0
   15.4678   43.5002  129.1619 H   0  0  0  0  0  0  0  0  0  0  0  0
   15.2707   45.1867  128.5500 H   0  0  0  0  0  0  0  0  0  0  0  0
   12.6189   43.8886  128.1889 H   0  0  0  0  0  0  0  0  0  0  0  0
    9.8643   45.9672  129.7790 C   0  0  0  0  0  0  0  0  0  0  0  0
   10.5228   46.4234  128.4953 C   0  0  0  0  0  0  0  0  0  0  0  0
   10.1751   45.5722  127.3160 C   0  0  0  0  0  0  0  0  0  0  0  0
   10.7610   44.2511  127.3573 N   0  0  0  0  0  0  0  0  0  0  0  0
   11.8022   44.1648  127.3295 H   0  0  0  0  0  0  0  0  0  0  0  0
    8.6352   43.1530  126.8105 N   0  0  0  0  0  0  0  0  0  0  0  0
    9.9040   43.1160  127.4345 C   0  0  0  0  0  0  0  0  0  0  0  0
   10.2848   42.0659  128.0709 N   0  0  0  0  0  0  0  0  0  0  0  0
    7.9589   42.3827  126.9969 H   0  0  0  0  0  0  0  0  0  0  0  0
    8.4025   43.9389  126.1846 H   0  0  0  0  0  0  0  0  0  0  0  0
   11.2077   42.0557  128.5170 H   0  0  0  0  0  0  0  0  0  0  0  0
 65 66  1  0  0  0
 66 67  2  0  0  0
 66 63  1  0  0  0
 63 62  1  0  0  0
 62 61  1  0  0  0
 61 60  1  0  0  0
 60  1  1  0  0  0
  1  2  1  0  0  0
  2  3  1  0  0  0
  3  4  2  0  0  0
  3  6  1  0  0  0
  6  7  1  0  0  0
  7  8  1  0  0  0
  8  9  1  0  0  0
  9 10  1  0  0  0
 10 11  1  0  0  0
 11 12  2  0  0  0
 11 13  1  0  0  0
 13 26  1  0  0  0
 26 27  1  0  0  0
 27 28  2  0  0  0
 28 29  1  0  0  0
 29 30  2  0  0  0
 30 31  1  0  0  0
 31 32  2  0  0  0
 13 14  1  0  0  0
 14 15  1  0  0  0
 15 16  2  0  0  0
 15 18  1  0  0  0
 18 19  1  0  0  0
 19 20  1  0  0  0
 20 21  2  0  0  0
 21 22  1  0  0  0
 22 23  2  0  0  0
 23 24  1  0  0  0
 24 25  2  0  0  0
  1 33  1  0  0  0
 33 34  2  0  0  0
 33 35  1  0  0  0
 35 37  1  0  0  0
 37 49  1  0  0  0
 49 50  1  0  0  0
 50 51  1  0  0  0
 51 52  1  0  0  0
 52 54  1  0  0  0
 54 55  1  0  0  0
 54 56  2  0  0  0
 37 38  1  0  0  0
 38 39  2  0  0  0
 38 40  1  0  0  0
 40 41  2  0  0  0
 41 42  1  0  0  0
 42 43  2  0  0  0
 43 44  1  0  0  0
 44 45  2  0  0  0
 45 46  1  0  0  0
 46 47  2  0  0  0
 47 48  1  0  0  0
 10  6  1  0  0  0
 32 27  1  0  0  0
 25 20  1  0  0  0
 48 40  1  0  0  0
 47 42  1  0  0  0
 65 68  1  0  0  0
 65 69  1  0  0  0
 67 70  1  0  0  0
 63 64  1  0  0  0
  2  5  1  0  0  0
 14 17  1  0  0  0
 35 36  1  0  0  0
 52 53  1  0  0  0
 55 57  1  0  0  0
 55 58  1  0  0  0
 56 59  1  0  0  0
M  END
> <minimizedAffinity>
6.76937

> <CNNscore>
0.5437387824

> <CNNaffinity>
8.9948377609

> <CNN_VS>
4.8908419609

> <CNNaffinity_variance>
1.1498935223

$$$$
[H]N=C(N([H])[H])N([H])C([H])([H])C([H])([H])C([H])([H])[C@@]([H])(C(=O)c1nc2c([H])c([H])c([H])c([H])c2o1)N([H])C(=O)[C@@]([H])(N([H])C(=O)[C@@]1([H])N(C(=O)[C@]([H])(N([H])C(=O)OC([H])([H])c2c([H])c([H])c([H])c([H])c2[H])C([H])([H])c2c([H])c([H])c([H])c([H])c2[H])C([H])([H])C([H])([H])C1([H])[H])C([H])([H])C([H])([H])C([H])([H])N([H])C(=N[H])N([H])[H]


 70 74  0  0  0  0  0  0  0  0999 V2000
    8.8577   45.5170  128.2639 C   0  0  0  0  0  0  0  0  0  0  0  0
    7.5928   46.0691  128.6521 N   0  0  0  0  0  0  0  0  0  0  0  0
    7.4566   46.7434  129.9418 C   0  0  0  0  0  0  0  0  0  0  0  0
    8.5226   46.7733  130.5840 O   0  0  0  0  0  0  0  0  0  0  0  0
    6.7451   46.0269  128.0705 H   0  0  0  0  0  0  0  0  0  0  0  0
    6.1516   47.2741  130.2997 C   0  0  0  0  0  0  0  0  0  0  0  0
    5.2018   46.0813  130.3459 C   0  0  0  0  0  0  0  0  0  0  0  0
    3.8545   46.7892  130.2424 C   0  0  0  0  0  0  0  0  0  0  0  0
    4.1666   47.7750  129.1666 C   0  0  0  0  0  0  0  0  0  0  0  0
    5.5403   48.2949  129.5476 N   0  0  0  0  0  0  0  0  0  0  0  0
    5.8744   49.5750  129.0972 C   0  0  0  0  0  0  0  0  0  0  0  0
    4.9168   50.2453  128.4761 O   0  0  0  0  0  0  0  0  0  0  0  0
    7.0958   50.3616  129.1702 C   0  0  0  0  0  0  0  0  0  0  0  0
    7.2378   51.2401  127.9896 N   0  0  0  0  0  0  0  0  0  0  0  0
    7.0338   52.6207  128.0616 C   0  0  0  0  0  0  0  0  0  0  0  0
    6.7276   53.1447  129.1573 O   0  0  0  0  0  0  0  0  0  0  0  0
    7.4995   50.8065  127.0867 H   0  0  0  0  0  0  0  0  0  0  0  0
    7.1676   53.4139  126.9556 O   0  0  0  0  0  0  0  0  0  0  0  0
    8.2180   54.2777  126.6819 C   0  0  0  0  0  0  0  0  0  0  0  0
    8.3815   54.7218  125.3024 C   0  0  0  0  0  0  0  0  0  0  0  0
    8.2410   53.8805  124.2286 C   0  0  0  0  0  0  0  0  0  0  0  0
    8.3843   54.3260  122.9088 C   0  0  0  0  0  0  0  0  0  0  0  0
    8.6761   55.6640  122.7507 C   0  0  0  0  0  0  0  0  0  0  0  0
    8.8254   56.5421  123.8050 C   0  0  0  0  0  0  0  0  0  0  0  0
    8.6724   56.0429  125.0734 C   0  0  0  0  0  0  0  0  0  0  0  0
    8.3723   49.5122  129.2201 C   0  0  0  0  0  0  0  0  0  0  0  0
    9.0909   49.5190  130.4735 C   0  0  0  0  0  0  0  0  0  0  0  0
    8.6915   50.3309  131.5089 C   0  0  0  0  0  0  0  0  0  0  0  0
    9.3298   50.3524  132.7310 C   0  0  0  0  0  0  0  0  0  0  0  0
   10.4108   49.5315  132.9308 C   0  0  0  0  0  0  0  0  0  0  0  0
   10.8330   48.7123  131.9209 C   0  0  0  0  0  0  0  0  0  0  0  0
   10.1737   48.7049  130.6901 C   0  0  0  0  0  0  0  0  0  0  0  0
    9.0364   44.0882  128.7238 C   0  0  0  0  0  0  0  0  0  0  0  0
    9.4057   43.1778  127.9532 O   0  0  0  0  0  0  0  0  0  0  0  0
    8.7688   43.8323  130.0749 N   0  0  0  0  0  0  0  0  0  0  0  0
    8.4676   44.6025  130.7111 H   0  0  0  0  0  0  0  0  0  0  0  0
    8.8836   42.5251  130.7065 C   0  0  0  0  0  0  0  0  0  0  0  0
    8.2927   42.5491  132.0549 C   0  0  0  0  0  0  0  0  0  0  0  0
    7.5597   41.5734  132.4667 O   0  0  0  0  0  0  0  0  0  0  0  0
    8.5287   43.6785  132.9474 C   0  0  0  0  0  0  0  0  0  0  0  0
    9.2527   43.7745  134.0619 N   0  0  0  0  0  0  0  0  0  0  0  0
    9.2072   45.0073  134.5844 C   0  0  0  0  0  0  0  0  0  0  0  0
    9.7414   45.6361  135.6737 C   0  0  0  0  0  0  0  0  0  0  0  0
    9.4866   46.9836  135.9433 C   0  0  0  0  0  0  0  0  0  0  0  0
    8.6741   47.6802  135.0776 C   0  0  0  0  0  0  0  0  0  0  0  0
    8.1373   47.0376  133.9780 C   0  0  0  0  0  0  0  0  0  0  0  0
    8.3897   45.7129  133.7166 C   0  0  0  0  0  0  0  0  0  0  0  0
    8.0134   44.8931  132.7696 O   0  0  0  0  0  0  0  0  0  0  0  0
   10.3661   42.1200  130.7408 C   0  0  0  0  0  0  0  0  0  0  0  0
   10.8153   42.0780  132.1716 C   0  0  0  0  0  0  0  0  0  0  0  0
   12.2467   42.4983  132.3896 C   0  0  0  0  0  0  0  0  0  0  0  0
   12.2572   43.6421  133.2818 N   0  0  0  0  0  0  0  0  0  0  0  0
   12.4801   43.5005  134.2839 H   0  0  0  0  0  0  0  0  0  0  0  0
   11.9804   44.9666  132.8794 C   0  0  0  0  0  0  0  0  0  0  0  0
   12.5770   46.0361  133.5979 N   0  0  0  0  0  0  0  0  0  0  0  0
   11.2108   45.2492  131.8857 N   0  0  0  0  0  0  0  0  0  0  0  0
   13.5157   46.4007  133.3352 H   0  0  0  0  0  0  0  0  0  0  0  0
   12.0539   46.4478  134.3927 H   0  0  0  0  0  0  0  0  0  0  0  0
   11.0238   46.2168  131.6118 H   0  0  0  0  0  0  0  0  0  0  0  0
   10.0021   46.2699  128.8929 C   0  0  0  0  0  0  0  0  0  0  0  0
   11.2731   46.1364  128.0827 C   0  0  0  0  0  0  0  0  0  0  0  0
   11.8207   44.7450  128.0645 C   0  0  0  0  0  0  0  0  0  0  0  0
   12.2904   44.2862  129.3526 N   0  0  0  0  0  0  0  0  0  0  0  0
   11.6042   43.8480  130.0079 H   0  0  0  0  0  0  0  0  0  0  0  0
   14.6588   44.1170  128.7316 N   0  0  0  0  0  0  0  0  0  0  0  0
   13.6664   44.4453  129.6845 C   0  0  0  0  0  0  0  0  0  0  0  0
   14.0004   44.8833  130.8461 N   0  0  0  0  0  0  0  0  0  0  0  0
   15.6566   44.0930  129.0305 H   0  0  0  0  0  0  0  0  0  0  0  0
   14.3785   43.9077  127.7615 H   0  0  0  0  0  0  0  0  0  0  0  0
   13.2684   45.1169  131.5246 H   0  0  0  0  0  0  0  0  0  0  0  0
 65 66  1  0  0  0
 66 67  2  0  0  0
 66 63  1  0  0  0
 63 62  1  0  0  0
 62 61  1  0  0  0
 61 60  1  0  0  0
 60  1  1  0  0  0
  1  2  1  0  0  0
  2  3  1  0  0  0
  3  4  2  0  0  0
  3  6  1  0  0  0
  6  7  1  0  0  0
  7  8  1  0  0  0
  8  9  1  0  0  0
  9 10  1  0  0  0
 10 11  1  0  0  0
 11 12  2  0  0  0
 11 13  1  0  0  0
 13 26  1  0  0  0
 26 27  1  0  0  0
 27 28  2  0  0  0
 28 29  1  0  0  0
 29 30  2  0  0  0
 30 31  1  0  0  0
 31 32  2  0  0  0
 13 14  1  0  0  0
 14 15  1  0  0  0
 15 16  2  0  0  0
 15 18  1  0  0  0
 18 19  1  0  0  0
 19 20  1  0  0  0
 20 21  2  0  0  0
 21 22  1  0  0  0
 22 23  2  0  0  0
 23 24  1  0  0  0
 24 25  2  0  0  0
  1 33  1  0  0  0
 33 34  2  0  0  0
 33 35  1  0  0  0
 35 37  1  0  0  0
 37 49  1  0  0  0
 49 50  1  0  0  0
 50 51  1  0  0  0
 51 52  1  0  0  0
 52 54  1  0  0  0
 54 55  1  0  0  0
 54 56  2  0  0  0
 37 38  1  0  0  0
 38 39  2  0  0  0
 38 40  1  0  0  0
 40 41  2  0  0  0
 41 42  1  0  0  0
 42 43  2  0  0  0
 43 44  1  0  0  0
 44 45  2  0  0  0
 45 46  1  0  0  0
 46 47  2  0  0  0
 47 48  1  0  0  0
 10  6  1  0  0  0
 32 27  1  0  0  0
 25 20  1  0  0  0
 48 40  1  0  0  0
 47 42  1  0  0  0
 65 68  1  0  0  0
 65 69  1  0  0  0
 67 70  1  0  0  0
 63 64  1  0  0  0
  2  5  1  0  0  0
 14 17  1  0  0  0
 35 36  1  0  0  0
 52 53  1  0  0  0
 55 57  1  0  0  0
 55 58  1  0  0  0
 56 59  1  0  0  0
M  END
> <minimizedAffinity>
4.07108

> <CNNscore>
0.5117026567

> <CNNaffinity>
8.6017074585

> <CNN_VS>
4.4015164375

> <CNNaffinity_variance>
1.0866056681

$$$$
[H]N=C(N([H])[H])N([H])C([H])([H])C([H])([H])C([H])([H])[C@@]([H])(C(=O)c1nc2c([H])c([H])c([H])c([H])c2o1)N([H])C(=O)[C@@]([H])(N([H])C(=O)[C@@]1([H])N(C(=O)[C@]([H])(N([H])C(=O)OC([H])([H])c2c([H])c([H])c([H])c([H])c2[H])C([H])([H])c2c([H])c([H])c([H])c([H])c2[H])C([H])([H])C([H])([H])C1([H])[H])C([H])([H])C([H])([H])C([H])([H])N([H])C(=N[H])N([H])[H]


 70 74  0  0  0  0  0  0  0  0999 V2000
    8.5848   47.8375  130.2235 C   0  0  0  0  0  0  0  0  0  0  0  0
    8.6005   46.4355  129.9239 N   0  0  0  0  0  0  0  0  0  0  0  0
    9.3751   45.5202  130.7598 C   0  0  0  0  0  0  0  0  0  0  0  0
    9.9534   46.0983  131.6984 O   0  0  0  0  0  0  0  0  0  0  0  0
    8.0884   46.0103  129.1394 H   0  0  0  0  0  0  0  0  0  0  0  0
    9.3738   44.1096  130.4090 C   0  0  0  0  0  0  0  0  0  0  0  0
    7.9109   43.6785  130.3719 C   0  0  0  0  0  0  0  0  0  0  0  0
    8.0600   42.1644  130.4821 C   0  0  0  0  0  0  0  0  0  0  0  0
    9.0959   42.0878  131.5535 C   0  0  0  0  0  0  0  0  0  0  0  0
   10.0929   43.1627  131.1624 N   0  0  0  0  0  0  0  0  0  0  0  0
   11.4067   42.9924  131.6075 C   0  0  0  0  0  0  0  0  0  0  0  0
   11.6701   41.8561  132.2330 O   0  0  0  0  0  0  0  0  0  0  0  0
   12.5950   43.8275  131.5246 C   0  0  0  0  0  0  0  0  0  0  0  0
   12.3588   45.1555  132.1300 N   0  0  0  0  0  0  0  0  0  0  0  0
   12.5062   45.3844  133.5006 C   0  0  0  0  0  0  0  0  0  0  0  0
   12.8565   44.4444  134.2508 O   0  0  0  0  0  0  0  0  0  0  0  0
   12.0779   45.9333  131.5071 H   0  0  0  0  0  0  0  0  0  0  0  0
   12.2794   46.6206  134.0395 O   0  0  0  0  0  0  0  0  0  0  0  0
   11.2351   46.9748  134.8812 C   0  0  0  0  0  0  0  0  0  0  0  0
    9.9364   46.3574  134.6381 C   0  0  0  0  0  0  0  0  0  0  0  0
    8.7702   47.0764  134.5799 C   0  0  0  0  0  0  0  0  0  0  0  0
    7.5328   46.4709  134.3285 C   0  0  0  0  0  0  0  0  0  0  0  0
    7.5548   45.1052  134.1424 C   0  0  0  0  0  0  0  0  0  0  0  0
    8.7068   44.3467  134.1934 C   0  0  0  0  0  0  0  0  0  0  0  0
    9.8865   45.0002  134.4436 C   0  0  0  0  0  0  0  0  0  0  0  0
   13.0593   44.0955  130.0872 C   0  0  0  0  0  0  0  0  0  0  0  0
   12.0162   44.3460  129.1194 C   0  0  0  0  0  0  0  0  0  0  0  0
   11.7508   45.6237  128.6861 C   0  0  0  0  0  0  0  0  0  0  0  0
   10.7835   45.9082  127.7454 C   0  0  0  0  0  0  0  0  0  0  0  0
   10.0496   44.8779  127.2141 C   0  0  0  0  0  0  0  0  0  0  0  0
   10.2891   43.5959  127.6244 C   0  0  0  0  0  0  0  0  0  0  0  0
   11.2729   43.3278  128.5782 C   0  0  0  0  0  0  0  0  0  0  0  0
    7.3795   48.5439  129.6463 C   0  0  0  0  0  0  0  0  0  0  0  0
    6.2516   48.0108  129.5952 O   0  0  0  0  0  0  0  0  0  0  0  0
    7.5907   49.8442  129.1696 N   0  0  0  0  0  0  0  0  0  0  0  0
    8.5361   50.2821  129.2241 H   0  0  0  0  0  0  0  0  0  0  0  0
    6.5585   50.6858  128.5805 C   0  0  0  0  0  0  0  0  0  0  0  0
    6.8373   52.1071  128.8450 C   0  0  0  0  0  0  0  0  0  0  0  0
    6.8569   52.5577  130.0514 O   0  0  0  0  0  0  0  0  0  0  0  0
    7.0970   53.0287  127.7445 C   0  0  0  0  0  0  0  0  0  0  0  0
    6.9692   54.3526  127.6654 N   0  0  0  0  0  0  0  0  0  0  0  0
    7.3198   54.8188  126.4594 C   0  0  0  0  0  0  0  0  0  0  0  0
    7.3798   56.0431  125.8554 C   0  0  0  0  0  0  0  0  0  0  0  0
    7.8061   56.1905  124.5326 C   0  0  0  0  0  0  0  0  0  0  0  0
    8.1718   55.0617  123.8350 C   0  0  0  0  0  0  0  0  0  0  0  0
    8.1085   53.8266  124.4522 C   0  0  0  0  0  0  0  0  0  0  0  0
    7.6886   53.6857  125.7525 C   0  0  0  0  0  0  0  0  0  0  0  0
    7.5418   52.6566  126.5461 O   0  0  0  0  0  0  0  0  0  0  0  0
    5.1920   50.2590  129.1406 C   0  0  0  0  0  0  0  0  0  0  0  0
    4.2102   50.2003  128.0077 C   0  0  0  0  0  0  0  0  0  0  0  0
    2.9769   51.0447  128.2052 C   0  0  0  0  0  0  0  0  0  0  0  0
    2.3821   51.2973  126.9065 N   0  0  0  0  0  0  0  0  0  0  0  0
    2.3564   50.5353  126.2046 H   0  0  0  0  0  0  0  0  0  0  0  0
    1.8213   52.5325  126.5158 C   0  0  0  0  0  0  0  0  0  0  0  0
    0.6655   53.0014  127.1942 N   0  0  0  0  0  0  0  0  0  0  0  0
    2.3136   53.2563  125.5707 N   0  0  0  0  0  0  0  0  0  0  0  0
    0.7471   53.5776  128.0571 H   0  0  0  0  0  0  0  0  0  0  0  0
   -0.2652   52.7566  126.8085 H   0  0  0  0  0  0  0  0  0  0  0  0
    1.8904   54.1484  125.3037 H   0  0  0  0  0  0  0  0  0  0  0  0
    9.7712   48.5423  129.6169 C   0  0  0  0  0  0  0  0  0  0  0  0
   10.5440   49.3305  130.6519 C   0  0  0  0  0  0  0  0  0  0  0  0
   10.5398   48.6949  132.0054 C   0  0  0  0  0  0  0  0  0  0  0  0
   10.1098   49.5804  133.0642 N   0  0  0  0  0  0  0  0  0  0  0  0
   10.1816   49.2494  134.0529 H   0  0  0  0  0  0  0  0  0  0  0  0
    9.7375   51.9355  133.6463 N   0  0  0  0  0  0  0  0  0  0  0  0
    9.6050   50.8689  132.7267 C   0  0  0  0  0  0  0  0  0  0  0  0
    9.0307   51.0567  131.5921 N   0  0  0  0  0  0  0  0  0  0  0  0
    9.2370   52.8295  133.4571 H   0  0  0  0  0  0  0  0  0  0  0  0
   10.3247   51.8100  134.4847 H   0  0  0  0  0  0  0  0  0  0  0  0
    8.9434   50.2729  130.9371 H   0  0  0  0  0  0  0  0  0  0  0  0
 65 66  1  0  0  0
 66 67  2  0  0  0
 66 63  1  0  0  0
 63 62  1  0  0  0
 62 61  1  0  0  0
 61 60  1  0  0  0
 60  1  1  0  0  0
  1  2  1  0  0  0
  2  3  1  0  0  0
  3  4  2  0  0  0
  3  6  1  0  0  0
  6  7  1  0  0  0
  7  8  1  0  0  0
  8  9  1  0  0  0
  9 10  1  0  0  0
 10 11  1  0  0  0
 11 12  2  0  0  0
 11 13  1  0  0  0
 13 26  1  0  0  0
 26 27  1  0  0  0
 27 28  2  0  0  0
 28 29  1  0  0  0
 29 30  2  0  0  0
 30 31  1  0  0  0
 31 32  2  0  0  0
 13 14  1  0  0  0
 14 15  1  0  0  0
 15 16  2  0  0  0
 15 18  1  0  0  0
 18 19  1  0  0  0
 19 20  1  0  0  0
 20 21  2  0  0  0
 21 22  1  0  0  0
 22 23  2  0  0  0
 23 24  1  0  0  0
 24 25  2  0  0  0
  1 33  1  0  0  0
 33 34  2  0  0  0
 33 35  1  0  0  0
 35 37  1  0  0  0
 37 49  1  0  0  0
 49 50  1  0  0  0
 50 51  1  0  0  0
 51 52  1  0  0  0
 52 54  1  0  0  0
 54 55  1  0  0  0
 54 56  2  0  0  0
 37 38  1  0  0  0
 38 39  2  0  0  0
 38 40  1  0  0  0
 40 41  2  0  0  0
 41 42  1  0  0  0
 42 43  2  0  0  0
 43 44  1  0  0  0
 44 45  2  0  0  0
 45 46  1  0  0  0
 46 47  2  0  0  0
 47 48  1  0  0  0
 10  6  1  0  0  0
 32 27  1  0  0  0
 25 20  1  0  0  0
 48 40  1  0  0  0
 47 42  1  0  0  0
 65 68  1  0  0  0
 65 69  1  0  0  0
 67 70  1  0  0  0
 63 64  1  0  0  0
  2  5  1  0  0  0
 14 17  1  0  0  0
 35 36  1  0  0  0
 52 53  1  0  0  0
 55 57  1  0  0  0
 55 58  1  0  0  0
 56 59  1  0  0  0
M  END
> <minimizedAffinity>
5.75799

> <CNNscore>
0.4592832625

> <CNNaffinity>
8.5899267197

> <CNN_VS>
3.9452095032

> <CNNaffinity_variance>
0.4770713747

$$$$
[H]N=C(N([H])[H])N([H])C([H])([H])C([H])([H])C([H])([H])[C@@]([H])(C(=O)c1nc2c([H])c([H])c([H])c([H])c2o1)N([H])C(=O)[C@@]([H])(N([H])C(=O)[C@@]1([H])N(C(=O)[C@]([H])(N([H])C(=O)OC([H])([H])c2c([H])c([H])c([H])c([H])c2[H])C([H])([H])c2c([H])c([H])c([H])c([H])c2[H])C([H])([H])C([H])([H])C1([H])[H])C([H])([H])C([H])([H])C([H])([H])N([H])C(=N[H])N([H])[H]


 70 74  0  0  0  0  0  0  0  0999 V2000
    7.4482   51.0154  128.6461 C   0  0  0  0  0  0  0  0  0  0  0  0
    7.7148   50.8465  130.0446 N   0  0  0  0  0  0  0  0  0  0  0  0
    8.6890   49.8501  130.4858 C   0  0  0  0  0  0  0  0  0  0  0  0
    9.2148   49.2385  129.5376 O   0  0  0  0  0  0  0  0  0  0  0  0
    7.2581   51.3938  130.7864 H   0  0  0  0  0  0  0  0  0  0  0  0
    8.9156   49.7034  131.9141 C   0  0  0  0  0  0  0  0  0  0  0  0
    9.1159   51.1124  132.4632 C   0  0  0  0  0  0  0  0  0  0  0  0
    9.8001   50.8032  133.7911 C   0  0  0  0  0  0  0  0  0  0  0  0
   10.7683   49.7603  133.3420 C   0  0  0  0  0  0  0  0  0  0  0  0
    9.9445   48.8847  132.4162 N   0  0  0  0  0  0  0  0  0  0  0  0
   10.3604   47.5582  132.2717 C   0  0  0  0  0  0  0  0  0  0  0  0
   11.3663   47.1731  133.0410 O   0  0  0  0  0  0  0  0  0  0  0  0
    9.9049   46.4656  131.4262 C   0  0  0  0  0  0  0  0  0  0  0  0
    9.5214   45.2882  132.2341 N   0  0  0  0  0  0  0  0  0  0  0  0
    8.4610   45.3243  133.1434 C   0  0  0  0  0  0  0  0  0  0  0  0
    7.8011   46.3797  133.2831 O   0  0  0  0  0  0  0  0  0  0  0  0
   10.0624   44.4141  132.1110 H   0  0  0  0  0  0  0  0  0  0  0  0
    8.1257   44.2237  133.8827 O   0  0  0  0  0  0  0  0  0  0  0  0
    8.8786   43.0678  134.0296 C   0  0  0  0  0  0  0  0  0  0  0  0
   10.2701   43.1118  133.5950 C   0  0  0  0  0  0  0  0  0  0  0  0
   11.2326   43.8328  134.2539 C   0  0  0  0  0  0  0  0  0  0  0  0
   12.5683   43.8512  133.8340 C   0  0  0  0  0  0  0  0  0  0  0  0
   12.8609   43.1001  132.7157 C   0  0  0  0  0  0  0  0  0  0  0  0
   11.9211   42.3617  132.0253 C   0  0  0  0  0  0  0  0  0  0  0  0
   10.6301   42.3857  132.4881 C   0  0  0  0  0  0  0  0  0  0  0  0
   10.9669   45.9702  130.4361 C   0  0  0  0  0  0  0  0  0  0  0  0
   10.5321   44.9734  129.4849 C   0  0  0  0  0  0  0  0  0  0  0  0
   10.9253   45.0380  128.1689 C   0  0  0  0  0  0  0  0  0  0  0  0
   10.5571   44.0961  127.2316 C   0  0  0  0  0  0  0  0  0  0  0  0
    9.7642   43.0461  127.6204 C   0  0  0  0  0  0  0  0  0  0  0  0
    9.3560   42.9534  128.9219 C   0  0  0  0  0  0  0  0  0  0  0  0
    9.7391   43.9173  129.8565 C   0  0  0  0  0  0  0  0  0  0  0  0
    7.2219   52.4608  128.2658 C   0  0  0  0  0  0  0  0  0  0  0  0
    6.7221   53.2904  129.0539 O   0  0  0  0  0  0  0  0  0  0  0  0
    7.6094   52.8306  126.9713 N   0  0  0  0  0  0  0  0  0  0  0  0
    8.0325   52.1303  126.3239 H   0  0  0  0  0  0  0  0  0  0  0  0
    7.4743   54.1718  126.4201 C   0  0  0  0  0  0  0  0  0  0  0  0
    7.7286   54.1624  124.9699 C   0  0  0  0  0  0  0  0  0  0  0  0
    8.9313   54.2363  124.5149 O   0  0  0  0  0  0  0  0  0  0  0  0
    6.6221   54.0684  124.0240 C   0  0  0  0  0  0  0  0  0  0  0  0
    6.6008   54.1482  122.6941 N   0  0  0  0  0  0  0  0  0  0  0  0
    5.3626   54.0051  122.2032 C   0  0  0  0  0  0  0  0  0  0  0  0
    4.7885   54.0019  120.9632 C   0  0  0  0  0  0  0  0  0  0  0  0
    3.4136   53.8206  120.7898 C   0  0  0  0  0  0  0  0  0  0  0  0
    2.6326   53.6415  121.9090 C   0  0  0  0  0  0  0  0  0  0  0  0
    3.2201   53.6460  123.1600 C   0  0  0  0  0  0  0  0  0  0  0  0
    4.5718   53.8250  123.3265 C   0  0  0  0  0  0  0  0  0  0  0  0
    5.3532   53.8696  124.3742 O   0  0  0  0  0  0  0  0  0  0  0  0
    8.4383   55.1116  127.1620 C   0  0  0  0  0  0  0  0  0  0  0  0
    8.0873   56.5274  126.8111 C   0  0  0  0  0  0  0  0  0  0  0  0
    6.9310   56.6656  125.8535 C   0  0  0  0  0  0  0  0  0  0  0  0
    5.7023   56.7135  126.6231 N   0  0  0  0  0  0  0  0  0  0  0  0
    5.7539   56.7450  127.6577 H   0  0  0  0  0  0  0  0  0  0  0  0
    4.4093   56.7210  126.0567 C   0  0  0  0  0  0  0  0  0  0  0  0
    4.2848   56.7239  124.6423 N   0  0  0  0  0  0  0  0  0  0  0  0
    3.3347   56.7230  126.7670 N   0  0  0  0  0  0  0  0  0  0  0  0
    4.2610   55.8331  124.1044 H   0  0  0  0  0  0  0  0  0  0  0  0
    4.2169   57.6367  124.1557 H   0  0  0  0  0  0  0  0  0  0  0  0
    2.4075   56.7289  126.3351 H   0  0  0  0  0  0  0  0  0  0  0  0
    6.1813   50.3073  128.2388 C   0  0  0  0  0  0  0  0  0  0  0  0
    5.6858   49.3768  129.3242 C   0  0  0  0  0  0  0  0  0  0  0  0
    4.9477   48.1889  128.7950 C   0  0  0  0  0  0  0  0  0  0  0  0
    5.2953   46.9473  129.4491 N   0  0  0  0  0  0  0  0  0  0  0  0
    4.5251   46.3356  129.8025 H   0  0  0  0  0  0  0  0  0  0  0  0
    7.6132   47.0850  128.6541 N   0  0  0  0  0  0  0  0  0  0  0  0
    6.6696   46.6000  129.5895 C   0  0  0  0  0  0  0  0  0  0  0  0
    7.0458   45.8476  130.5616 N   0  0  0  0  0  0  0  0  0  0  0  0
    8.5842   46.7078  128.6756 H   0  0  0  0  0  0  0  0  0  0  0  0
    7.3247   47.8004  127.9697 H   0  0  0  0  0  0  0  0  0  0  0  0
    6.3489   45.5051  131.2309 H   0  0  0  0  0  0  0  0  0  0  0  0
 65 66  1  0  0  0
 66 67  2  0  0  0
 66 63  1  0  0  0
 63 62  1  0  0  0
 62 61  1  0  0  0
 61 60  1  0  0  0
 60  1  1  0  0  0
  1  2  1  0  0  0
  2  3  1  0  0  0
  3  4  2  0  0  0
  3  6  1  0  0  0
  6  7  1  0  0  0
  7  8  1  0  0  0
  8  9  1  0  0  0
  9 10  1  0  0  0
 10 11  1  0  0  0
 11 12  2  0  0  0
 11 13  1  0  0  0
 13 26  1  0  0  0
 26 27  1  0  0  0
 27 28  2  0  0  0
 28 29  1  0  0  0
 29 30  2  0  0  0
 30 31  1  0  0  0
 31 32  2  0  0  0
 13 14  1  0  0  0
 14 15  1  0  0  0
 15 16  2  0  0  0
 15 18  1  0  0  0
 18 19  1  0  0  0
 19 20  1  0  0  0
 20 21  2  0  0  0
 21 22  1  0  0  0
 22 23  2  0  0  0
 23 24  1  0  0  0
 24 25  2  0  0  0
  1 33  1  0  0  0
 33 34  2  0  0  0
 33 35  1  0  0  0
 35 37  1  0  0  0
 37 49  1  0  0  0
 49 50  1  0  0  0
 50 51  1  0  0  0
 51 52  1  0  0  0
 52 54  1  0  0  0
 54 55  1  0  0  0
 54 56  2  0  0  0
 37 38  1  0  0  0
 38 39  2  0  0  0
 38 40  1  0  0  0
 40 41  2  0  0  0
 41 42  1  0  0  0
 42 43  2  0  0  0
 43 44  1  0  0  0
 44 45  2  0  0  0
 45 46  1  0  0  0
 46 47  2  0  0  0
 47 48  1  0  0  0
 10  6  1  0  0  0
 32 27  1  0  0  0
 25 20  1  0  0  0
 48 40  1  0  0  0
 47 42  1  0  0  0
 65 68  1  0  0  0
 65 69  1  0  0  0
 67 70  1  0  0  0
 63 64  1  0  0  0
  2  5  1  0  0  0
 14 17  1  0  0  0
 35 36  1  0  0  0
 52 53  1  0  0  0
 55 57  1  0  0  0
 55 58  1  0  0  0
 56 59  1  0  0  0
M  END
> <minimizedAffinity>
3.51902

> <CNNscore>
0.4570667446

> <CNNaffinity>
8.0769691467

> <CNN_VS>
3.6917140484

> <CNNaffinity_variance>
0.1855088770

$$$$
[H]N=C(N([H])[H])N([H])C([H])([H])C([H])([H])C([H])([H])[C@@]([H])(C(=O)c1nc2c([H])c([H])c([H])c([H])c2o1)N([H])C(=O)[C@@]([H])(N([H])C(=O)[C@@]1([H])N(C(=O)[C@]([H])(N([H])C(=O)OC([H])([H])c2c([H])c([H])c([H])c([H])c2[H])C([H])([H])c2c([H])c([H])c([H])c([H])c2[H])C([H])([H])C([H])([H])C1([H])[H])C([H])([H])C([H])([H])C([H])([H])N([H])C(=N[H])N([H])[H]


 70 74  0  0  0  0  0  0  0  0999 V2000
    6.9860   46.9462  129.6552 C   0  0  0  0  0  0  0  0  0  0  0  0
    8.2448   46.8048  128.9838 N   0  0  0  0  0  0  0  0  0  0  0  0
    9.1557   45.7259  129.3622 C   0  0  0  0  0  0  0  0  0  0  0  0
    8.6976   45.0048  130.2676 O   0  0  0  0  0  0  0  0  0  0  0  0
    8.5656   47.4253  128.2284 H   0  0  0  0  0  0  0  0  0  0  0  0
   10.4273   45.6307  128.6646 C   0  0  0  0  0  0  0  0  0  0  0  0
   10.1082   45.1361  127.2572 C   0  0  0  0  0  0  0  0  0  0  0  0
   11.4786   44.6297  126.8185 C   0  0  0  0  0  0  0  0  0  0  0  0
   11.8935   43.9109  128.0586 C   0  0  0  0  0  0  0  0  0  0  0  0
   11.4897   44.8594  129.1720 N   0  0  0  0  0  0  0  0  0  0  0  0
   12.2040   44.7624  130.3694 C   0  0  0  0  0  0  0  0  0  0  0  0
   13.2308   43.9272  130.3723 O   0  0  0  0  0  0  0  0  0  0  0  0
   12.0578   45.4106  131.6634 C   0  0  0  0  0  0  0  0  0  0  0  0
   11.5300   44.4711  132.6757 N   0  0  0  0  0  0  0  0  0  0  0  0
   12.0731   44.3803  133.9601 C   0  0  0  0  0  0  0  0  0  0  0  0
   13.0336   45.1181  134.2794 O   0  0  0  0  0  0  0  0  0  0  0  0
   10.7304   43.8683  132.4128 H   0  0  0  0  0  0  0  0  0  0  0  0
   11.5708   43.5015  134.8797 O   0  0  0  0  0  0  0  0  0  0  0  0
   10.4805   42.6610  134.7080 C   0  0  0  0  0  0  0  0  0  0  0  0
    9.9515   42.5133  133.3569 C   0  0  0  0  0  0  0  0  0  0  0  0
    8.6588   42.8289  133.0258 C   0  0  0  0  0  0  0  0  0  0  0  0
    8.1705   42.6976  131.7199 C   0  0  0  0  0  0  0  0  0  0  0  0
    9.0677   42.2308  130.7831 C   0  0  0  0  0  0  0  0  0  0  0  0
   10.3756   41.9024  131.0767 C   0  0  0  0  0  0  0  0  0  0  0  0
   10.7920   42.0536  132.3749 C   0  0  0  0  0  0  0  0  0  0  0  0
   11.0913   46.6019  131.6488 C   0  0  0  0  0  0  0  0  0  0  0  0
   10.2699   46.7675  132.8259 C   0  0  0  0  0  0  0  0  0  0  0  0
   10.6002   47.6906  133.7899 C   0  0  0  0  0  0  0  0  0  0  0  0
    9.8335   47.9019  134.9164 C   0  0  0  0  0  0  0  0  0  0  0  0
    8.6904   47.1634  135.0906 C   0  0  0  0  0  0  0  0  0  0  0  0
    8.3345   46.2372  134.1501 C   0  0  0  0  0  0  0  0  0  0  0  0
    9.1241   46.0374  133.0160 C   0  0  0  0  0  0  0  0  0  0  0  0
    6.1206   48.0280  129.0505 C   0  0  0  0  0  0  0  0  0  0  0  0
    4.9686   47.8039  128.6242 O   0  0  0  0  0  0  0  0  0  0  0  0
    6.6788   49.3117  128.9950 N   0  0  0  0  0  0  0  0  0  0  0  0
    7.6397   49.4885  129.3608 H   0  0  0  0  0  0  0  0  0  0  0  0
    6.0048   50.4826  128.4513 C   0  0  0  0  0  0  0  0  0  0  0  0
    6.6949   51.7152  128.8665 C   0  0  0  0  0  0  0  0  0  0  0  0
    7.0299   51.8961  130.0969 O   0  0  0  0  0  0  0  0  0  0  0  0
    7.0115   52.7520  127.8904 C   0  0  0  0  0  0  0  0  0  0  0  0
    6.7930   54.0662  127.9103 N   0  0  0  0  0  0  0  0  0  0  0  0
    7.2469   54.6666  126.8020 C   0  0  0  0  0  0  0  0  0  0  0  0
    7.2839   55.9439  126.3179 C   0  0  0  0  0  0  0  0  0  0  0  0
    7.8510   56.2436  125.0762 C   0  0  0  0  0  0  0  0  0  0  0  0
    8.3818   55.2124  124.3350 C   0  0  0  0  0  0  0  0  0  0  0  0
    8.3408   53.9229  124.8308 C   0  0  0  0  0  0  0  0  0  0  0  0
    7.7822   53.6322  126.0516 C   0  0  0  0  0  0  0  0  0  0  0  0
    7.6219   52.5251  126.7292 O   0  0  0  0  0  0  0  0  0  0  0  0
    4.5380   50.4679  128.9111 C   0  0  0  0  0  0  0  0  0  0  0  0
    3.6580   50.5428  127.6983 C   0  0  0  0  0  0  0  0  0  0  0  0
    2.3617   51.2825  127.9117 C   0  0  0  0  0  0  0  0  0  0  0  0
    1.8371   51.6699  126.6159 N   0  0  0  0  0  0  0  0  0  0  0  0
    1.3737   50.9569  126.0235 H   0  0  0  0  0  0  0  0  0  0  0  0
    1.9109   52.9767  126.0868 C   0  0  0  0  0  0  0  0  0  0  0  0
    1.3582   54.0480  126.8370 N   0  0  0  0  0  0  0  0  0  0  0  0
    2.4607   53.2417  124.9524 N   0  0  0  0  0  0  0  0  0  0  0  0
    1.9264   54.5548  127.5466 H   0  0  0  0  0  0  0  0  0  0  0  0
    0.3723   54.3156  126.6605 H   0  0  0  0  0  0  0  0  0  0  0  0
    2.5027   54.1966  124.5880 H   0  0  0  0  0  0  0  0  0  0  0  0
    7.1733   47.3614  131.0922 C   0  0  0  0  0  0  0  0  0  0  0  0
    7.1402   48.8660  131.2495 C   0  0  0  0  0  0  0  0  0  0  0  0
    8.2501   49.3975  132.0991 C   0  0  0  0  0  0  0  0  0  0  0  0
    9.1783   50.2440  131.3835 N   0  0  0  0  0  0  0  0  0  0  0  0
    9.1938   51.2659  131.6022 H   0  0  0  0  0  0  0  0  0  0  0  0
   11.4158   49.5123  130.6891 N   0  0  0  0  0  0  0  0  0  0  0  0
   10.0373   49.6601  130.4087 C   0  0  0  0  0  0  0  0  0  0  0  0
    9.5585   49.2729  129.2803 N   0  0  0  0  0  0  0  0  0  0  0  0
   12.0587   49.2255  129.9211 H   0  0  0  0  0  0  0  0  0  0  0  0
   11.7590   49.6905  131.6451 H   0  0  0  0  0  0  0  0  0  0  0  0
    8.5571   49.3870  129.0935 H   0  0  0  0  0  0  0  0  0  0  0  0
 65 66  1  0  0  0
 66 67  2  0  0  0
 66 63  1  0  0  0
 63 62  1  0  0  0
 62 61  1  0  0  0
 61 60  1  0  0  0
 60  1  1  0  0  0
  1  2  1  0  0  0
  2  3  1  0  0  0
  3  4  2  0  0  0
  3  6  1  0  0  0
  6  7  1  0  0  0
  7  8  1  0  0  0
  8  9  1  0  0  0
  9 10  1  0  0  0
 10 11  1  0  0  0
 11 12  2  0  0  0
 11 13  1  0  0  0
 13 26  1  0  0  0
 26 27  1  0  0  0
 27 28  2  0  0  0
 28 29  1  0  0  0
 29 30  2  0  0  0
 30 31  1  0  0  0
 31 32  2  0  0  0
 13 14  1  0  0  0
 14 15  1  0  0  0
 15 16  2  0  0  0
 15 18  1  0  0  0
 18 19  1  0  0  0
 19 20  1  0  0  0
 20 21  2  0  0  0
 21 22  1  0  0  0
 22 23  2  0  0  0
 23 24  1  0  0  0
 24 25  2  0  0  0
  1 33  1  0  0  0
 33 34  2  0  0  0
 33 35  1  0  0  0
 35 37  1  0  0  0
 37 49  1  0  0  0
 49 50  1  0  0  0
 50 51  1  0  0  0
 51 52  1  0  0  0
 52 54  1  0  0  0
 54 55  1  0  0  0
 54 56  2  0  0  0
 37 38  1  0  0  0
 38 39  2  0  0  0
 38 40  1  0  0  0
 40 41  2  0  0  0
 41 42  1  0  0  0
 42 43  2  0  0  0
 43 44  1  0  0  0
 44 45  2  0  0  0
 45 46  1  0  0  0
 46 47  2  0  0  0
 47 48  1  0  0  0
 10  6  1  0  0  0
 32 27  1  0  0  0
 25 20  1  0  0  0
 48 40  1  0  0  0
 47 42  1  0  0  0
 65 68  1  0  0  0
 65 69  1  0  0  0
 67 70  1  0  0  0
 63 64  1  0  0  0
  2  5  1  0  0  0
 14 17  1  0  0  0
 35 36  1  0  0  0
 52 53  1  0  0  0
 55 57  1  0  0  0
 55 58  1  0  0  0
 56 59  1  0  0  0
M  END
> <minimizedAffinity>
7.04925

> <CNNscore>
0.4253064394

> <CNNaffinity>
8.4245491028

> <CNN_VS>
3.5830149651

> <CNNaffinity_variance>
0.5004846454

$$$$
[H]N=C(N([H])[H])N([H])C([H])([H])C([H])([H])C([H])([H])[C@@]([H])(C(=O)c1nc2c([H])c([H])c([H])c([H])c2o1)N([H])C(=O)[C@@]([H])(N([H])C(=O)[C@@]1([H])N(C(=O)[C@]([H])(N([H])C(=O)OC([H])([H])c2c([H])c([H])c([H])c([H])c2[H])C([H])([H])c2c([H])c([H])c([H])c([H])c2[H])C([H])([H])C([H])([H])C1([H])[H])C([H])([H])C([H])([H])C([H])([H])N([H])C(=N[H])N([H])[H]


 70 74  0  0  0  0  0  0  0  0999 V2000
    7.5176   50.8114  128.8104 C   0  0  0  0  0  0  0  0  0  0  0  0
    7.7513   50.6577  130.2165 N   0  0  0  0  0  0  0  0  0  0  0  0
    8.8181   49.7756  130.6860 C   0  0  0  0  0  0  0  0  0  0  0  0
    9.4453   49.2404  129.7534 O   0  0  0  0  0  0  0  0  0  0  0  0
    7.2075   51.1395  130.9450 H   0  0  0  0  0  0  0  0  0  0  0  0
    9.0084   49.6389  132.1206 C   0  0  0  0  0  0  0  0  0  0  0  0
    9.2141   51.0502  132.6620 C   0  0  0  0  0  0  0  0  0  0  0  0
    9.8621   50.7442  134.0086 C   0  0  0  0  0  0  0  0  0  0  0  0
   10.8269   49.6847  133.5922 C   0  0  0  0  0  0  0  0  0  0  0  0
   10.0140   48.8115  132.6546 N   0  0  0  0  0  0  0  0  0  0  0  0
   10.4157   47.4785  132.5317 C   0  0  0  0  0  0  0  0  0  0  0  0
   11.3976   47.0873  133.3284 O   0  0  0  0  0  0  0  0  0  0  0  0
    9.9661   46.3842  131.6852 C   0  0  0  0  0  0  0  0  0  0  0  0
    9.6466   45.1840  132.4872 N   0  0  0  0  0  0  0  0  0  0  0  0
    8.4360   45.0482  133.1718 C   0  0  0  0  0  0  0  0  0  0  0  0
    7.5821   45.9623  133.1064 O   0  0  0  0  0  0  0  0  0  0  0  0
   10.3499   44.4256  132.5330 H   0  0  0  0  0  0  0  0  0  0  0  0
    8.1628   43.9301  133.9104 O   0  0  0  0  0  0  0  0  0  0  0  0
    8.9451   42.7878  133.9982 C   0  0  0  0  0  0  0  0  0  0  0  0
   10.3073   42.8644  133.4829 C   0  0  0  0  0  0  0  0  0  0  0  0
   10.6925   42.2716  132.3079 C   0  0  0  0  0  0  0  0  0  0  0  0
   12.0006   42.3687  131.8177 C   0  0  0  0  0  0  0  0  0  0  0  0
   12.8822   43.0971  132.5876 C   0  0  0  0  0  0  0  0  0  0  0  0
   12.5334   43.7079  133.7750 C   0  0  0  0  0  0  0  0  0  0  0  0
   11.2361   43.5751  134.2002 C   0  0  0  0  0  0  0  0  0  0  0  0
   11.0091   45.9367  130.6530 C   0  0  0  0  0  0  0  0  0  0  0  0
   10.5657   44.9602  129.6849 C   0  0  0  0  0  0  0  0  0  0  0  0
    9.4900   44.1456  129.9494 C   0  0  0  0  0  0  0  0  0  0  0  0
    9.0150   43.2178  129.0466 C   0  0  0  0  0  0  0  0  0  0  0  0
    9.6369   43.0957  127.8297 C   0  0  0  0  0  0  0  0  0  0  0  0
   10.7094   43.8911  127.5362 C   0  0  0  0  0  0  0  0  0  0  0  0
   11.1759   44.8247  128.4637 C   0  0  0  0  0  0  0  0  0  0  0  0
    7.0890   52.2128  128.4400 C   0  0  0  0  0  0  0  0  0  0  0  0
    6.6879   53.0367  129.2882 O   0  0  0  0  0  0  0  0  0  0  0  0
    7.1690   52.5486  127.0823 N   0  0  0  0  0  0  0  0  0  0  0  0
    7.5125   51.8541  126.3835 H   0  0  0  0  0  0  0  0  0  0  0  0
    6.8038   53.8453  126.5292 C   0  0  0  0  0  0  0  0  0  0  0  0
    8.0049   54.5805  126.0993 C   0  0  0  0  0  0  0  0  0  0  0  0
    8.9492   54.8397  126.9360 O   0  0  0  0  0  0  0  0  0  0  0  0
    8.1457   55.0268  124.7177 C   0  0  0  0  0  0  0  0  0  0  0  0
    9.0060   55.8763  124.1576 N   0  0  0  0  0  0  0  0  0  0  0  0
    8.7937   56.0099  122.8416 C   0  0  0  0  0  0  0  0  0  0  0  0
    9.3572   56.7209  121.8198 C   0  0  0  0  0  0  0  0  0  0  0  0
    8.8781   56.6314  120.5099 C   0  0  0  0  0  0  0  0  0  0  0  0
    7.8100   55.7996  120.2610 C   0  0  0  0  0  0  0  0  0  0  0  0
    7.2450   55.0836  121.2994 C   0  0  0  0  0  0  0  0  0  0  0  0
    7.7185   55.1745  122.5857 C   0  0  0  0  0  0  0  0  0  0  0  0
    7.3698   54.6174  123.7164 O   0  0  0  0  0  0  0  0  0  0  0  0
    6.0045   54.6266  127.5845 C   0  0  0  0  0  0  0  0  0  0  0  0
    5.8943   56.0545  127.1376 C   0  0  0  0  0  0  0  0  0  0  0  0
    4.6965   56.3471  126.2700 C   0  0  0  0  0  0  0  0  0  0  0  0
    3.9812   55.1056  126.0433 N   0  0  0  0  0  0  0  0  0  0  0  0
    3.7111   54.5214  126.8555 H   0  0  0  0  0  0  0  0  0  0  0  0
    3.6155   54.6203  124.7691 C   0  0  0  0  0  0  0  0  0  0  0  0
    4.1965   55.2177  123.6196 N   0  0  0  0  0  0  0  0  0  0  0  0
    2.7780   53.6558  124.6022 N   0  0  0  0  0  0  0  0  0  0  0  0
    5.0993   54.8720  123.2340 H   0  0  0  0  0  0  0  0  0  0  0  0
    3.6987   56.0085  123.1706 H   0  0  0  0  0  0  0  0  0  0  0  0
    2.5271   53.3202  123.6690 H   0  0  0  0  0  0  0  0  0  0  0  0
    6.3905   49.9274  128.3408 C   0  0  0  0  0  0  0  0  0  0  0  0
    5.4584   49.5584  129.4743 C   0  0  0  0  0  0  0  0  0  0  0  0
    4.8364   48.2080  129.3142 C   0  0  0  0  0  0  0  0  0  0  0  0
    5.6770   47.2571  128.6217 N   0  0  0  0  0  0  0  0  0  0  0  0
    5.4062   46.9601  127.6569 H   0  0  0  0  0  0  0  0  0  0  0  0
    6.7075   45.9786  130.4458 N   0  0  0  0  0  0  0  0  0  0  0  0
    6.8413   46.7590  129.2738 C   0  0  0  0  0  0  0  0  0  0  0  0
    8.0062   47.0217  128.7975 N   0  0  0  0  0  0  0  0  0  0  0  0
    7.5605   45.7462  130.9970 H   0  0  0  0  0  0  0  0  0  0  0  0
    5.7715   45.6547  130.7331 H   0  0  0  0  0  0  0  0  0  0  0  0
    8.0852   47.5885  127.9469 H   0  0  0  0  0  0  0  0  0  0  0  0
 65 66  1  0  0  0
 66 67  2  0  0  0
 66 63  1  0  0  0
 63 62  1  0  0  0
 62 61  1  0  0  0
 61 60  1  0  0  0
 60  1  1  0  0  0
  1  2  1  0  0  0
  2  3  1  0  0  0
  3  4  2  0  0  0
  3  6  1  0  0  0
  6  7  1  0  0  0
  7  8  1  0  0  0
  8  9  1  0  0  0
  9 10  1  0  0  0
 10 11  1  0  0  0
 11 12  2  0  0  0
 11 13  1  0  0  0
 13 26  1  0  0  0
 26 27  1  0  0  0
 27 28  2  0  0  0
 28 29  1  0  0  0
 29 30  2  0  0  0
 30 31  1  0  0  0
 31 32  2  0  0  0
 13 14  1  0  0  0
 14 15  1  0  0  0
 15 16  2  0  0  0
 15 18  1  0  0  0
 18 19  1  0  0  0
 19 20  1  0  0  0
 20 21  2  0  0  0
 21 22  1  0  0  0
 22 23  2  0  0  0
 23 24  1  0  0  0
 24 25  2  0  0  0
  1 33  1  0  0  0
 33 34  2  0  0  0
 33 35  1  0  0  0
 35 37  1  0  0  0
 37 49  1  0  0  0
 49 50  1  0  0  0
 50 51  1  0  0  0
 51 52  1  0  0  0
 52 54  1  0  0  0
 54 55  1  0  0  0
 54 56  2  0  0  0
 37 38  1  0  0  0
 38 39  2  0  0  0
 38 40  1  0  0  0
 40 41  2  0  0  0
 41 42  1  0  0  0
 42 43  2  0  0  0
 43 44  1  0  0  0
 44 45  2  0  0  0
 45 46  1  0  0  0
 46 47  2  0  0  0
 47 48  1  0  0  0
 10  6  1  0  0  0
 32 27  1  0  0  0
 25 20  1  0  0  0
 48 40  1  0  0  0
 47 42  1  0  0  0
 65 68  1  0  0  0
 65 69  1  0  0  0
 67 70  1  0  0  0
 63 64  1  0  0  0
  2  5  1  0  0  0
 14 17  1  0  0  0
 35 36  1  0  0  0
 52 53  1  0  0  0
 55 57  1  0  0  0
 55 58  1  0  0  0
 56 59  1  0  0  0
M  END
> <minimizedAffinity>
3.82824

> <CNNscore>
0.4189438820

> <CNNaffinity>
8.0828943253

> <CNN_VS>
3.3862791061

> <CNNaffinity_variance>
0.2366822213

$$$$
[H]N=C(N([H])[H])N([H])C([H])([H])C([H])([H])C([H])([H])[C@@]([H])(C(=O)c1nc2c([H])c([H])c([H])c([H])c2o1)N([H])C(=O)[C@@]([H])(N([H])C(=O)[C@@]1([H])N(C(=O)[C@]([H])(N([H])C(=O)OC([H])([H])c2c([H])c([H])c([H])c([H])c2[H])C([H])([H])c2c([H])c([H])c([H])c([H])c2[H])C([H])([H])C([H])([H])C1([H])[H])C([H])([H])C([H])([H])C([H])([H])N([H])C(=N[H])N([H])[H]


 70 74  0  0  0  0  0  0  0  0999 V2000
   10.4925   47.7742  129.6976 C   0  0  0  0  0  0  0  0  0  0  0  0
    9.1544   47.6311  130.1921 N   0  0  0  0  0  0  0  0  0  0  0  0
    8.0235   47.7160  129.2698 C   0  0  0  0  0  0  0  0  0  0  0  0
    8.3771   47.8995  128.0905 O   0  0  0  0  0  0  0  0  0  0  0  0
    8.9222   47.4652  131.1805 H   0  0  0  0  0  0  0  0  0  0  0  0
    6.6843   47.5802  129.8184 C   0  0  0  0  0  0  0  0  0  0  0  0
    6.1063   46.2990  129.2257 C   0  0  0  0  0  0  0  0  0  0  0  0
    4.6169   46.5229  129.4678 C   0  0  0  0  0  0  0  0  0  0  0  0
    4.5039   47.9526  129.0556 C   0  0  0  0  0  0  0  0  0  0  0  0
    5.7251   48.6010  129.6808 N   0  0  0  0  0  0  0  0  0  0  0  0
    5.6380   49.9683  129.9567 C   0  0  0  0  0  0  0  0  0  0  0  0
    4.4606   50.5345  129.7441 O   0  0  0  0  0  0  0  0  0  0  0  0
    6.6006   50.9408  130.4504 C   0  0  0  0  0  0  0  0  0  0  0  0
    6.5355   52.1985  129.6759 N   0  0  0  0  0  0  0  0  0  0  0  0
    6.9346   52.2692  128.3385 C   0  0  0  0  0  0  0  0  0  0  0  0
    7.3561   51.2395  127.7632 O   0  0  0  0  0  0  0  0  0  0  0  0
    6.1787   53.0465  130.1505 H   0  0  0  0  0  0  0  0  0  0  0  0
    6.8687   53.4444  127.6421 O   0  0  0  0  0  0  0  0  0  0  0  0
    7.9413   54.1693  127.1436 C   0  0  0  0  0  0  0  0  0  0  0  0
    7.8884   54.5707  125.7424 C   0  0  0  0  0  0  0  0  0  0  0  0
    7.6572   55.8633  125.3473 C   0  0  0  0  0  0  0  0  0  0  0  0
    7.6264   56.2362  123.9979 C   0  0  0  0  0  0  0  0  0  0  0  0
    7.8426   55.2251  123.0863 C   0  0  0  0  0  0  0  0  0  0  0  0
    8.0784   53.9130  123.4438 C   0  0  0  0  0  0  0  0  0  0  0  0
    8.0959   53.6131  124.7821 C   0  0  0  0  0  0  0  0  0  0  0  0
    8.0563   50.4651  130.3612 C   0  0  0  0  0  0  0  0  0  0  0  0
    8.6399   49.9737  131.5882 C   0  0  0  0  0  0  0  0  0  0  0  0
    8.0570   48.9374  132.2787 C   0  0  0  0  0  0  0  0  0  0  0  0
    8.5913   48.4182  133.4391 C   0  0  0  0  0  0  0  0  0  0  0  0
    9.7544   48.9531  133.9327 C   0  0  0  0  0  0  0  0  0  0  0  0
   10.3586   49.9847  133.2695 C   0  0  0  0  0  0  0  0  0  0  0  0
    9.8020   50.4970  132.0959 C   0  0  0  0  0  0  0  0  0  0  0  0
   10.8070   46.8090  128.5777 C   0  0  0  0  0  0  0  0  0  0  0  0
   11.3160   47.1778  127.4988 O   0  0  0  0  0  0  0  0  0  0  0  0
   10.5002   45.4626  128.8133 N   0  0  0  0  0  0  0  0  0  0  0  0
   10.0815   45.1651  129.7215 H   0  0  0  0  0  0  0  0  0  0  0  0
   10.7286   44.3845  127.8613 C   0  0  0  0  0  0  0  0  0  0  0  0
    9.8223   43.2560  128.1314 C   0  0  0  0  0  0  0  0  0  0  0  0
    9.5391   42.4066  127.2055 O   0  0  0  0  0  0  0  0  0  0  0  0
    9.2306   43.0807  129.4532 C   0  0  0  0  0  0  0  0  0  0  0  0
    8.5484   42.0628  129.9767 N   0  0  0  0  0  0  0  0  0  0  0  0
    8.1787   42.3050  131.2413 C   0  0  0  0  0  0  0  0  0  0  0  0
    7.4894   41.6342  132.2121 C   0  0  0  0  0  0  0  0  0  0  0  0
    7.2684   42.1908  133.4749 C   0  0  0  0  0  0  0  0  0  0  0  0
    7.7657   43.4486  133.7300 C   0  0  0  0  0  0  0  0  0  0  0  0
    8.4618   44.1212  132.7434 C   0  0  0  0  0  0  0  0  0  0  0  0
    8.6767   43.5710  131.5032 C   0  0  0  0  0  0  0  0  0  0  0  0
    9.2872   43.9891  130.4248 O   0  0  0  0  0  0  0  0  0  0  0  0
   12.2045   43.9612  127.9370 C   0  0  0  0  0  0  0  0  0  0  0  0
   12.8770   44.7684  129.0079 C   0  0  0  0  0  0  0  0  0  0  0  0
   13.2969   43.9739  130.2185 C   0  0  0  0  0  0  0  0  0  0  0  0
   12.1025   43.5361  130.9157 N   0  0  0  0  0  0  0  0  0  0  0  0
   11.1737   43.8314  130.5632 H   0  0  0  0  0  0  0  0  0  0  0  0
   12.1085   42.7180  132.0661 C   0  0  0  0  0  0  0  0  0  0  0  0
   11.2025   41.6266  132.1311 N   0  0  0  0  0  0  0  0  0  0  0  0
   12.9024   42.9162  133.0610 N   0  0  0  0  0  0  0  0  0  0  0  0
   11.4604   40.6925  131.7513 H   0  0  0  0  0  0  0  0  0  0  0  0
   10.2753   41.7816  132.5680 H   0  0  0  0  0  0  0  0  0  0  0  0
   12.8893   42.3106  133.8853 H   0  0  0  0  0  0  0  0  0  0  0  0
   11.5093   47.4674  130.7673 C   0  0  0  0  0  0  0  0  0  0  0  0
   10.9212   46.6169  131.8719 C   0  0  0  0  0  0  0  0  0  0  0  0
   11.9487   46.0750  132.8135 C   0  0  0  0  0  0  0  0  0  0  0  0
   11.6519   46.3234  134.2066 N   0  0  0  0  0  0  0  0  0  0  0  0
   12.0933   47.1483  134.6725 H   0  0  0  0  0  0  0  0  0  0  0  0
   11.1087   44.0722  135.0194 N   0  0  0  0  0  0  0  0  0  0  0  0
   10.7715   45.4402  134.8948 C   0  0  0  0  0  0  0  0  0  0  0  0
    9.6759   45.8877  135.3969 N   0  0  0  0  0  0  0  0  0  0  0  0
   10.3956   43.4087  135.3892 H   0  0  0  0  0  0  0  0  0  0  0  0
   12.0507   43.7566  134.7428 H   0  0  0  0  0  0  0  0  0  0  0  0
    9.4470   46.8821  135.2979 H   0  0  0  0  0  0  0  0  0  0  0  0
 65 66  1  0  0  0
 66 67  2  0  0  0
 66 63  1  0  0  0
 63 62  1  0  0  0
 62 61  1  0  0  0
 61 60  1  0  0  0
 60  1  1  0  0  0
  1  2  1  0  0  0
  2  3  1  0  0  0
  3  4  2  0  0  0
  3  6  1  0  0  0
  6  7  1  0  0  0
  7  8  1  0  0  0
  8  9  1  0  0  0
  9 10  1  0  0  0
 10 11  1  0  0  0
 11 12  2  0  0  0
 11 13  1  0  0  0
 13 26  1  0  0  0
 26 27  1  0  0  0
 27 28  2  0  0  0
 28 29  1  0  0  0
 29 30  2  0  0  0
 30 31  1  0  0  0
 31 32  2  0  0  0
 13 14  1  0  0  0
 14 15  1  0  0  0
 15 16  2  0  0  0
 15 18  1  0  0  0
 18 19  1  0  0  0
 19 20  1  0  0  0
 20 21  2  0  0  0
 21 22  1  0  0  0
 22 23  2  0  0  0
 23 24  1  0  0  0
 24 25  2  0  0  0
  1 33  1  0  0  0
 33 34  2  0  0  0
 33 35  1  0  0  0
 35 37  1  0  0  0
 37 49  1  0  0  0
 49 50  1  0  0  0
 50 51  1  0  0  0
 51 52  1  0  0  0
 52 54  1  0  0  0
 54 55  1  0  0  0
 54 56  2  0  0  0
 37 38  1  0  0  0
 38 39  2  0  0  0
 38 40  1  0  0  0
 40 41  2  0  0  0
 41 42  1  0  0  0
 42 43  2  0  0  0
 43 44  1  0  0  0
 44 45  2  0  0  0
 45 46  1  0  0  0
 46 47  2  0  0  0
 47 48  1  0  0  0
 10  6  1  0  0  0
 32 27  1  0  0  0
 25 20  1  0  0  0
 48 40  1  0  0  0
 47 42  1  0  0  0
 65 68  1  0  0  0
 65 69  1  0  0  0
 67 70  1  0  0  0
 63 64  1  0  0  0
  2  5  1  0  0  0
 14 17  1  0  0  0
 35 36  1  0  0  0
 52 53  1  0  0  0
 55 57  1  0  0  0
 55 58  1  0  0  0
 56 59  1  0  0  0
M  END
> <minimizedAffinity>
6.28940

> <CNNscore>
0.4172373116

> <CNNaffinity>
8.3237133026

> <CNN_VS>
3.4729638100

> <CNNaffinity_variance>
0.8822620511

$$$$
[H]O[C@]([H])(C([H])([H])[H])[C@]([H])(C(=O)N([H])[C@]([H])(C(=O)N([H])[C@]([H])(C(=O)N([H])[C@]([H])(C(=O)c1nc2c([H])c([H])c([H])c([H])c2s1)C([H])([H])C([H])([H])C([H])([H])C([H])([H])N([H])[H])C([H])([H])C([H])([H])C([H])([H])N=C(N([H])[H])N([H])[H])C([H])([H])c1c([H])c([H])c([H])c([H])c1[H])N([H])[H]


 59 61  0  0  0  0  0  0  0  0999 V2000
   11.5565   46.3688  131.7869 C   0  0  0  0  0  0  0  0  0  0  0  0
   11.4786   45.5139  130.5322 C   0  0  0  0  0  0  0  0  0  0  0  0
   12.3450   44.6135  130.5029 O   0  0  0  0  0  0  0  0  0  0  0  0
   10.5614   45.6821  129.5079 N   0  0  0  0  0  0  0  0  0  0  0  0
    9.8760   46.5153  129.6310 H   0  0  0  0  0  0  0  0  0  0  0  0
   10.3519   44.9643  128.2967 C   0  0  0  0  0  0  0  0  0  0  0  0
    9.7466   43.6439  128.4558 C   0  0  0  0  0  0  0  0  0  0  0  0
    9.5195   42.8235  127.5336 O   0  0  0  0  0  0  0  0  0  0  0  0
    9.3478   43.1645  129.8002 C   0  0  0  0  0  0  0  0  0  0  0  0
   10.1275   43.0004  130.8559 N   0  0  0  0  0  0  0  0  0  0  0  0
    9.6271   42.6027  131.9817 C   0  0  0  0  0  0  0  0  0  0  0  0
   10.3597   42.3988  133.1792 C   0  0  0  0  0  0  0  0  0  0  0  0
    9.7163   41.9835  134.3077 C   0  0  0  0  0  0  0  0  0  0  0  0
    8.3729   41.7408  134.3697 C   0  0  0  0  0  0  0  0  0  0  0  0
    7.6455   41.9353  133.2091 C   0  0  0  0  0  0  0  0  0  0  0  0
    8.2843   42.3624  132.0365 C   0  0  0  0  0  0  0  0  0  0  0  0
    7.8167   42.7309  130.4338 S   0  0  0  0  0  0  0  0  0  0  0  0
   11.5565   45.0747  127.4328 C   0  0  0  0  0  0  0  0  0  0  0  0
   12.6028   44.0048  127.6992 C   0  0  0  0  0  0  0  0  0  0  0  0
   13.9141   44.6343  128.1433 C   0  0  0  0  0  0  0  0  0  0  0  0
   14.7934   43.6828  128.8903 C   0  0  0  0  0  0  0  0  0  0  0  0
   15.1150   44.2290  130.2065 N   0  0  0  0  0  0  0  0  0  0  0  0
   15.0749   43.4420  130.8878 H   0  0  0  0  0  0  0  0  0  0  0  0
   14.4361   44.9722  130.4553 H   0  0  0  0  0  0  0  0  0  0  0  0
   10.2229   48.4646  131.3701 C   0  0  0  0  0  0  0  0  0  0  0  0
   11.2161   49.0466  130.8088 O   0  0  0  0  0  0  0  0  0  0  0  0
   10.3438   47.1478  131.8574 N   0  0  0  0  0  0  0  0  0  0  0  0
    9.5114   46.6647  132.3028 H   0  0  0  0  0  0  0  0  0  0  0  0
    8.9891   49.2869  131.4480 C   0  0  0  0  0  0  0  0  0  0  0  0
    6.9456   49.6478  129.9858 C   0  0  0  0  0  0  0  0  0  0  0  0
    6.8748   50.8074  130.4969 O   0  0  0  0  0  0  0  0  0  0  0  0
    8.0418   48.8650  130.4839 N   0  0  0  0  0  0  0  0  0  0  0  0
    8.0993   47.9032  130.0558 H   0  0  0  0  0  0  0  0  0  0  0  0
    5.9782   49.2189  128.9888 C   0  0  0  0  0  0  0  0  0  0  0  0
    4.6610   49.7487  129.3874 N   0  0  0  0  0  0  0  0  0  0  0  0
    4.5965   50.7487  129.0465 H   0  0  0  0  0  0  0  0  0  0  0  0
    4.6712   49.7882  130.4330 H   0  0  0  0  0  0  0  0  0  0  0  0
    7.1890   47.0632  128.8250 C   0  0  0  0  0  0  0  0  0  0  0  0
    5.8598   47.7401  128.7626 C   0  0  0  0  0  0  0  0  0  0  0  0
    4.8893   47.1289  129.5477 O   0  0  0  0  0  0  0  0  0  0  0  0
    4.0150   47.4953  129.2719 H   0  0  0  0  0  0  0  0  0  0  0  0
    8.5315   49.3209  132.8805 C   0  0  0  0  0  0  0  0  0  0  0  0
    8.6043   47.9661  133.5376 C   0  0  0  0  0  0  0  0  0  0  0  0
    9.2781   47.7199  134.6996 C   0  0  0  0  0  0  0  0  0  0  0  0
    9.3206   46.4329  135.2587 C   0  0  0  0  0  0  0  0  0  0  0  0
    8.6815   45.3854  134.6454 C   0  0  0  0  0  0  0  0  0  0  0  0
    8.0004   45.6222  133.4756 C   0  0  0  0  0  0  0  0  0  0  0  0
    7.9577   46.8960  132.9212 C   0  0  0  0  0  0  0  0  0  0  0  0
   11.8099   45.6142  133.0117 C   0  0  0  0  0  0  0  0  0  0  0  0
   13.0527   45.8854  133.7872 C   0  0  0  0  0  0  0  0  0  0  0  0
   13.1765   47.2079  134.4576 C   0  0  0  0  0  0  0  0  0  0  0  0
   14.3404   47.0804  135.3811 N   0  0  0  0  0  0  0  0  0  0  0  0
   14.4528   47.9471  136.2921 C   0  0  0  0  0  0  0  0  0  0  0  0
   15.5530   47.8564  137.1923 N   0  0  0  0  0  0  0  0  0  0  0  0
   13.4940   48.9912  136.4103 N   0  0  0  0  0  0  0  0  0  0  0  0
   15.3971   48.0349  138.1972 H   0  0  0  0  0  0  0  0  0  0  0  0
   16.5032   47.6125  136.8519 H   0  0  0  0  0  0  0  0  0  0  0  0
   12.7748   48.8780  137.1764 H   0  0  0  0  0  0  0  0  0  0  0  0
   13.4967   49.8268  135.7762 H   0  0  0  0  0  0  0  0  0  0  0  0
 38 39  1  0  0  0
 39 40  1  0  0  0
 39 34  1  0  0  0
 34 35  1  0  0  0
 34 30  1  0  0  0
 30 31  2  0  0  0
 30 32  1  0  0  0
 32 29  1  0  0  0
 29 42  1  0  0  0
 42 43  1  0  0  0
 43 44  2  0  0  0
 44 45  1  0  0  0
 45 46  2  0  0  0
 46 47  1  0  0  0
 47 48  2  0  0  0
 29 25  1  0  0  0
 25 26  2  0  0  0
 25 27  1  0  0  0
 27  1  1  0  0  0
  1 49  1  0  0  0
 49 50  1  0  0  0
 50 51  1  0  0  0
 51 52  1  0  0  0
 52 53  2  0  0  0
 53 54  1  0  0  0
 53 55  1  0  0  0
  1  2  1  0  0  0
  2  3  2  0  0  0
  2  4  1  0  0  0
  4  6  1  0  0  0
  6 18  1  0  0  0
 18 19  1  0  0  0
 19 20  1  0  0  0
 20 21  1  0  0  0
 21 22  1  0  0  0
  6  7  1  0  0  0
  7  8  2  0  0  0
  7  9  1  0  0  0
  9 10  2  0  0  0
 10 11  1  0  0  0
 11 12  2  0  0  0
 12 13  1  0  0  0
 13 14  2  0  0  0
 14 15  1  0  0  0
 15 16  2  0  0  0
 16 17  1  0  0  0
 48 43  1  0  0  0
 17  9  1  0  0  0
 16 11  1  0  0  0
 40 41  1  0  0  0
 35 36  1  0  0  0
 35 37  1  0  0  0
 32 33  1  0  0  0
 27 28  1  0  0  0
 54 56  1  0  0  0
 54 57  1  0  0  0
 55 58  1  0  0  0
 55 59  1  0  0  0
  4  5  1  0  0  0
 22 23  1  0  0  0
 22 24  1  0  0  0
M  END
> <minimizedAffinity>
9.97149

> <CNNscore>
0.5731360316

> <CNNaffinity>
8.5125436783

> <CNN_VS>
4.8788456917

> <CNNaffinity_variance>
0.5188700557

$$$$
[H]O[C@]([H])(C([H])([H])[H])[C@]([H])(C(=O)N([H])[C@]([H])(C(=O)N([H])[C@]([H])(C(=O)N([H])[C@]([H])(C(=O)c1nc2c([H])c([H])c([H])c([H])c2s1)C([H])([H])C([H])([H])C([H])([H])C([H])([H])N([H])[H])C([H])([H])C([H])([H])C([H])([H])N=C(N([H])[H])N([H])[H])C([H])([H])c1c([H])c([H])c([H])c([H])c1[H])N([H])[H]


 59 61  0  0  0  0  0  0  0  0999 V2000
   10.7000   46.5211  128.6494 C   0  0  0  0  0  0  0  0  0  0  0  0
    9.9299   47.8089  128.8939 C   0  0  0  0  0  0  0  0  0  0  0  0
   10.6383   48.7127  129.3873 O   0  0  0  0  0  0  0  0  0  0  0  0
    8.5869   48.0006  128.6142 N   0  0  0  0  0  0  0  0  0  0  0  0
    8.0681   47.1347  128.2142 H   0  0  0  0  0  0  0  0  0  0  0  0
    7.7401   49.1346  128.7665 C   0  0  0  0  0  0  0  0  0  0  0  0
    7.8875   49.8526  130.0307 C   0  0  0  0  0  0  0  0  0  0  0  0
    7.6542   51.0718  130.2149 O   0  0  0  0  0  0  0  0  0  0  0  0
    8.3422   49.1359  131.2455 C   0  0  0  0  0  0  0  0  0  0  0  0
    7.7985   48.0614  131.7923 N   0  0  0  0  0  0  0  0  0  0  0  0
    8.3304   47.5230  132.8426 C   0  0  0  0  0  0  0  0  0  0  0  0
    7.8432   46.3700  133.5100 C   0  0  0  0  0  0  0  0  0  0  0  0
    8.4975   45.8918  134.6069 C   0  0  0  0  0  0  0  0  0  0  0  0
    9.6250   46.4626  135.1270 C   0  0  0  0  0  0  0  0  0  0  0  0
   10.1115   47.5882  134.4864 C   0  0  0  0  0  0  0  0  0  0  0  0
    9.4567   48.0984  133.3566 C   0  0  0  0  0  0  0  0  0  0  0  0
    9.6843   49.4032  132.2756 S   0  0  0  0  0  0  0  0  0  0  0  0
    6.3637   48.7973  128.3178 C   0  0  0  0  0  0  0  0  0  0  0  0
    5.3061   48.9755  129.3948 C   0  0  0  0  0  0  0  0  0  0  0  0
    4.6543   47.6437  129.7335 C   0  0  0  0  0  0  0  0  0  0  0  0
    5.4252   46.4703  129.2183 C   0  0  0  0  0  0  0  0  0  0  0  0
    6.4948   46.1270  130.1523 N   0  0  0  0  0  0  0  0  0  0  0  0
    6.5364   45.0877  130.2087 H   0  0  0  0  0  0  0  0  0  0  0  0
    6.2985   46.5431  131.0815 H   0  0  0  0  0  0  0  0  0  0  0  0
    9.6094   44.7228  130.0354 C   0  0  0  0  0  0  0  0  0  0  0  0
    8.7483   44.4693  129.1219 O   0  0  0  0  0  0  0  0  0  0  0  0
   10.5900   45.7163  129.8421 N   0  0  0  0  0  0  0  0  0  0  0  0
   11.3126   45.9070  130.5945 H   0  0  0  0  0  0  0  0  0  0  0  0
    9.4707   43.8963  131.2610 C   0  0  0  0  0  0  0  0  0  0  0  0
   11.3390   44.1913  132.9541 C   0  0  0  0  0  0  0  0  0  0  0  0
   11.9144   43.2165  132.3803 O   0  0  0  0  0  0  0  0  0  0  0  0
   10.0731   44.5372  132.3706 N   0  0  0  0  0  0  0  0  0  0  0  0
    9.5987   45.3487  132.8480 H   0  0  0  0  0  0  0  0  0  0  0  0
   11.9628   44.8550  134.0874 C   0  0  0  0  0  0  0  0  0  0  0  0
   12.9573   45.8056  133.5567 N   0  0  0  0  0  0  0  0  0  0  0  0
   12.4478   46.6951  133.2928 H   0  0  0  0  0  0  0  0  0  0  0  0
   13.3094   45.3857  132.6651 H   0  0  0  0  0  0  0  0  0  0  0  0
   11.6302   43.2435  135.9402 C   0  0  0  0  0  0  0  0  0  0  0  0
   12.6282   43.9691  135.0996 C   0  0  0  0  0  0  0  0  0  0  0  0
   13.6068   43.1409  134.5626 O   0  0  0  0  0  0  0  0  0  0  0  0
   14.3298   43.7220  134.2244 H   0  0  0  0  0  0  0  0  0  0  0  0
    8.0263   43.5020  131.4061 C   0  0  0  0  0  0  0  0  0  0  0  0
    7.8007   42.5704  132.5695 C   0  0  0  0  0  0  0  0  0  0  0  0
    8.7237   42.3402  133.5493 C   0  0  0  0  0  0  0  0  0  0  0  0
    8.4611   41.4512  134.6035 C   0  0  0  0  0  0  0  0  0  0  0  0
    7.2621   40.7882  134.6734 C   0  0  0  0  0  0  0  0  0  0  0  0
    6.3262   41.0125  133.6926 C   0  0  0  0  0  0  0  0  0  0  0  0
    6.5852   41.8925  132.6485 C   0  0  0  0  0  0  0  0  0  0  0  0
   10.2938   45.7989  127.4464 C   0  0  0  0  0  0  0  0  0  0  0  0
   10.5800   44.3405  127.3440 C   0  0  0  0  0  0  0  0  0  0  0  0
   11.9855   43.8945  127.5430 C   0  0  0  0  0  0  0  0  0  0  0  0
   12.2430   44.0258  129.0059 N   0  0  0  0  0  0  0  0  0  0  0  0
   13.4247   44.2902  129.3631 C   0  0  0  0  0  0  0  0  0  0  0  0
   13.7071   44.4223  130.7530 N   0  0  0  0  0  0  0  0  0  0  0  0
   14.4487   44.4516  128.3891 N   0  0  0  0  0  0  0  0  0  0  0  0
   14.3327   45.1802  131.0695 H   0  0  0  0  0  0  0  0  0  0  0  0
   13.2922   43.7707  131.4469 H   0  0  0  0  0  0  0  0  0  0  0  0
   14.7311   45.4465  128.1714 H   0  0  0  0  0  0  0  0  0  0  0  0
   14.9001   43.6337  127.9121 H   0  0  0  0  0  0  0  0  0  0  0  0
 38 39  1  0  0  0
 39 40  1  0  0  0
 39 34  1  0  0  0
 34 35  1  0  0  0
 34 30  1  0  0  0
 30 31  2  0  0  0
 30 32  1  0  0  0
 32 29  1  0  0  0
 29 42  1  0  0  0
 42 43  1  0  0  0
 43 44  2  0  0  0
 44 45  1  0  0  0
 45 46  2  0  0  0
 46 47  1  0  0  0
 47 48  2  0  0  0
 29 25  1  0  0  0
 25 26  2  0  0  0
 25 27  1  0  0  0
 27  1  1  0  0  0
  1 49  1  0  0  0
 49 50  1  0  0  0
 50 51  1  0  0  0
 51 52  1  0  0  0
 52 53  2  0  0  0
 53 54  1  0  0  0
 53 55  1  0  0  0
  1  2  1  0  0  0
  2  3  2  0  0  0
  2  4  1  0  0  0
  4  6  1  0  0  0
  6 18  1  0  0  0
 18 19  1  0  0  0
 19 20  1  0  0  0
 20 21  1  0  0  0
 21 22  1  0  0  0
  6  7  1  0  0  0
  7  8  2  0  0  0
  7  9  1  0  0  0
  9 10  2  0  0  0
 10 11  1  0  0  0
 11 12  2  0  0  0
 12 13  1  0  0  0
 13 14  2  0  0  0
 14 15  1  0  0  0
 15 16  2  0  0  0
 16 17  1  0  0  0
 48 43  1  0  0  0
 17  9  1  0  0  0
 16 11  1  0  0  0
 40 41  1  0  0  0
 35 36  1  0  0  0
 35 37  1  0  0  0
 32 33  1  0  0  0
 27 28  1  0  0  0
 54 56  1  0  0  0
 54 57  1  0  0  0
 55 58  1  0  0  0
 55 59  1  0  0  0
  4  5  1  0  0  0
 22 23  1  0  0  0
 22 24  1  0  0  0
M  END
> <minimizedAffinity>
10.23274

> <CNNscore>
0.5527094603

> <CNNaffinity>
8.2667493820

> <CNN_VS>
4.5691103935

> <CNNaffinity_variance>
0.5663858652

$$$$
[H]O[C@]([H])(C([H])([H])[H])[C@]([H])(C(=O)N([H])[C@]([H])(C(=O)N([H])[C@]([H])(C(=O)N([H])[C@]([H])(C(=O)c1nc2c([H])c([H])c([H])c([H])c2s1)C([H])([H])C([H])([H])C([H])([H])C([H])([H])N([H])[H])C([H])([H])C([H])([H])C([H])([H])N=C(N([H])[H])N([H])[H])C([H])([H])c1c([H])c([H])c([H])c([H])c1[H])N([H])[H]


 59 61  0  0  0  0  0  0  0  0999 V2000
   10.4512   46.8484  128.8376 C   0  0  0  0  0  0  0  0  0  0  0  0
    9.5712   48.0881  128.8475 C   0  0  0  0  0  0  0  0  0  0  0  0
   10.1721   49.1077  129.2493 O   0  0  0  0  0  0  0  0  0  0  0  0
    8.2416   48.1257  128.4608 N   0  0  0  0  0  0  0  0  0  0  0  0
    7.8195   47.1723  128.1574 H   0  0  0  0  0  0  0  0  0  0  0  0
    7.3036   49.1944  128.3968 C   0  0  0  0  0  0  0  0  0  0  0  0
    7.3182   50.1011  129.5426 C   0  0  0  0  0  0  0  0  0  0  0  0
    6.7959   51.2414  129.5843 O   0  0  0  0  0  0  0  0  0  0  0  0
    7.9862   49.6981  130.8027 C   0  0  0  0  0  0  0  0  0  0  0  0
    7.6605   48.6907  131.5952 N   0  0  0  0  0  0  0  0  0  0  0  0
    8.3627   48.4388  132.6532 C   0  0  0  0  0  0  0  0  0  0  0  0
    8.1156   47.3856  133.5709 C   0  0  0  0  0  0  0  0  0  0  0  0
    8.9338   47.2168  134.6487 C   0  0  0  0  0  0  0  0  0  0  0  0
   10.0092   48.0159  134.9179 C   0  0  0  0  0  0  0  0  0  0  0  0
   10.2622   49.0476  134.0316 C   0  0  0  0  0  0  0  0  0  0  0  0
    9.4357   49.2410  132.9158 C   0  0  0  0  0  0  0  0  0  0  0  0
    9.3658   50.3285  131.5984 S   0  0  0  0  0  0  0  0  0  0  0  0
    5.9869   48.6799  127.9373 C   0  0  0  0  0  0  0  0  0  0  0  0
    4.8918   48.7718  128.9873 C   0  0  0  0  0  0  0  0  0  0  0  0
    4.8526   47.5094  129.8348 C   0  0  0  0  0  0  0  0  0  0  0  0
    5.7537   46.4333  129.3186 C   0  0  0  0  0  0  0  0  0  0  0  0
    6.7868   46.1312  130.3064 N   0  0  0  0  0  0  0  0  0  0  0  0
    6.9145   45.0974  130.3162 H   0  0  0  0  0  0  0  0  0  0  0  0
    6.4959   46.4796  131.2387 H   0  0  0  0  0  0  0  0  0  0  0  0
   10.8141   46.2690  131.2619 C   0  0  0  0  0  0  0  0  0  0  0  0
   11.7368   47.1483  131.3871 O   0  0  0  0  0  0  0  0  0  0  0  0
   10.1514   46.0938  130.0305 N   0  0  0  0  0  0  0  0  0  0  0  0
    9.3744   45.3778  129.9394 H   0  0  0  0  0  0  0  0  0  0  0  0
   10.5307   45.4917  132.4947 C   0  0  0  0  0  0  0  0  0  0  0  0
    9.0274   43.6618  131.5805 C   0  0  0  0  0  0  0  0  0  0  0  0
    8.1838   44.5779  131.3355 O   0  0  0  0  0  0  0  0  0  0  0  0
   10.2399   44.1416  132.1823 N   0  0  0  0  0  0  0  0  0  0  0  0
   10.9394   43.3787  132.3825 H   0  0  0  0  0  0  0  0  0  0  0  0
    8.7317   42.2770  131.2506 C   0  0  0  0  0  0  0  0  0  0  0  0
    8.3194   42.2330  129.8355 N   0  0  0  0  0  0  0  0  0  0  0  0
    9.1958   42.2064  129.2425 H   0  0  0  0  0  0  0  0  0  0  0  0
    7.8544   43.1504  129.6427 H   0  0  0  0  0  0  0  0  0  0  0  0
    7.6466   42.1416  133.4742 C   0  0  0  0  0  0  0  0  0  0  0  0
    7.6843   41.5985  132.0840 C   0  0  0  0  0  0  0  0  0  0  0  0
    6.4351   41.5419  131.4773 O   0  0  0  0  0  0  0  0  0  0  0  0
    6.5240   40.9734  130.6750 H   0  0  0  0  0  0  0  0  0  0  0  0
   11.6437   45.7372  133.4764 C   0  0  0  0  0  0  0  0  0  0  0  0
   11.5336   44.8613  134.6983 C   0  0  0  0  0  0  0  0  0  0  0  0
   10.5591   44.9964  135.6454 C   0  0  0  0  0  0  0  0  0  0  0  0
   10.5144   44.1573  136.7700 C   0  0  0  0  0  0  0  0  0  0  0  0
   11.4563   43.1753  136.9444 C   0  0  0  0  0  0  0  0  0  0  0  0
   12.4414   43.0307  135.9973 C   0  0  0  0  0  0  0  0  0  0  0  0
   12.4865   43.8609  134.8835 C   0  0  0  0  0  0  0  0  0  0  0  0
   10.3405   46.0443  127.6231 C   0  0  0  0  0  0  0  0  0  0  0  0
   10.2976   44.5596  127.7371 C   0  0  0  0  0  0  0  0  0  0  0  0
   11.5892   43.8396  127.9018 C   0  0  0  0  0  0  0  0  0  0  0  0
   11.8297   43.7817  129.3724 N   0  0  0  0  0  0  0  0  0  0  0  0
   12.9727   44.1241  129.7848 C   0  0  0  0  0  0  0  0  0  0  0  0
   13.2378   44.0808  131.1837 N   0  0  0  0  0  0  0  0  0  0  0  0
   13.9712   44.5442  128.8628 N   0  0  0  0  0  0  0  0  0  0  0  0
   13.7713   44.8503  131.6189 H   0  0  0  0  0  0  0  0  0  0  0  0
   12.9013   43.2905  131.7671 H   0  0  0  0  0  0  0  0  0  0  0  0
   14.1363   45.5861  128.7985 H   0  0  0  0  0  0  0  0  0  0  0  0
   14.5144   43.8631  128.2787 H   0  0  0  0  0  0  0  0  0  0  0  0
 38 39  1  0  0  0
 39 40  1  0  0  0
 39 34  1  0  0  0
 34 35  1  0  0  0
 34 30  1  0  0  0
 30 31  2  0  0  0
 30 32  1  0  0  0
 32 29  1  0  0  0
 29 42  1  0  0  0
 42 43  1  0  0  0
 43 44  2  0  0  0
 44 45  1  0  0  0
 45 46  2  0  0  0
 46 47  1  0  0  0
 47 48  2  0  0  0
 29 25  1  0  0  0
 25 26  2  0  0  0
 25 27  1  0  0  0
 27  1  1  0  0  0
  1 49  1  0  0  0
 49 50  1  0  0  0
 50 51  1  0  0  0
 51 52  1  0  0  0
 52 53  2  0  0  0
 53 54  1  0  0  0
 53 55  1  0  0  0
  1  2  1  0  0  0
  2  3  2  0  0  0
  2  4  1  0  0  0
  4  6  1  0  0  0
  6 18  1  0  0  0
 18 19  1  0  0  0
 19 20  1  0  0  0
 20 21  1  0  0  0
 21 22  1  0  0  0
  6  7  1  0  0  0
  7  8  2  0  0  0
  7  9  1  0  0  0
  9 10  2  0  0  0
 10 11  1  0  0  0
 11 12  2  0  0  0
 12 13  1  0  0  0
 13 14  2  0  0  0
 14 15  1  0  0  0
 15 16  2  0  0  0
 16 17  1  0  0  0
 48 43  1  0  0  0
 17  9  1  0  0  0
 16 11  1  0  0  0
 40 41  1  0  0  0
 35 36  1  0  0  0
 35 37  1  0  0  0
 32 33  1  0  0  0
 27 28  1  0  0  0
 54 56  1  0  0  0
 54 57  1  0  0  0
 55 58  1  0  0  0
 55 59  1  0  0  0
  4  5  1  0  0  0
 22 23  1  0  0  0
 22 24  1  0  0  0
M  END
> <minimizedAffinity>
9.63591

> <CNNscore>
0.4743293524

> <CNNaffinity>
8.1085500717

> <CNN_VS>
3.8461232185

> <CNNaffinity_variance>
0.5487286448

$$$$
[H]O[C@]([H])(C([H])([H])[H])[C@]([H])(C(=O)N([H])[C@]([H])(C(=O)N([H])[C@]([H])(C(=O)N([H])[C@]([H])(C(=O)c1nc2c([H])c([H])c([H])c([H])c2s1)C([H])([H])C([H])([H])C([H])([H])C([H])([H])N([H])[H])C([H])([H])C([H])([H])C([H])([H])N=C(N([H])[H])N([H])[H])C([H])([H])c1c([H])c([H])c([H])c([H])c1[H])N([H])[H]


 59 61  0  0  0  0  0  0  0  0999 V2000
    5.8339   47.0156  128.8682 C   0  0  0  0  0  0  0  0  0  0  0  0
    6.7951   48.1903  128.7813 C   0  0  0  0  0  0  0  0  0  0  0  0
    7.6210   48.0747  127.8503 O   0  0  0  0  0  0  0  0  0  0  0  0
    6.7897   49.2895  129.6241 N   0  0  0  0  0  0  0  0  0  0  0  0
    6.0444   49.2653  130.4134 H   0  0  0  0  0  0  0  0  0  0  0  0
    7.5993   50.4598  129.6597 C   0  0  0  0  0  0  0  0  0  0  0  0
    8.4576   50.5840  130.8358 C   0  0  0  0  0  0  0  0  0  0  0  0
    8.5329   51.5855  131.5882 O   0  0  0  0  0  0  0  0  0  0  0  0
    9.3381   49.4614  131.2370 C   0  0  0  0  0  0  0  0  0  0  0  0
    9.7703   48.4707  130.4750 N   0  0  0  0  0  0  0  0  0  0  0  0
   10.5673   47.5734  130.9604 C   0  0  0  0  0  0  0  0  0  0  0  0
   11.1002   46.4731  130.2409 C   0  0  0  0  0  0  0  0  0  0  0  0
   11.9388   45.5958  130.8628 C   0  0  0  0  0  0  0  0  0  0  0  0
   12.3143   45.7032  132.1724 C   0  0  0  0  0  0  0  0  0  0  0  0
   11.8020   46.7714  132.8868 C   0  0  0  0  0  0  0  0  0  0  0  0
   10.9384   47.6871  132.2693 C   0  0  0  0  0  0  0  0  0  0  0  0
   10.1013   49.1053  132.7284 S   0  0  0  0  0  0  0  0  0  0  0  0
    6.7898   51.6423  129.2648 C   0  0  0  0  0  0  0  0  0  0  0  0
    7.0988   52.1592  127.8692 C   0  0  0  0  0  0  0  0  0  0  0  0
    7.1626   53.6788  127.8608 C   0  0  0  0  0  0  0  0  0  0  0  0
    7.4578   54.2418  126.5071 C   0  0  0  0  0  0  0  0  0  0  0  0
    6.2752   54.9178  125.9791 N   0  0  0  0  0  0  0  0  0  0  0  0
    6.5993   55.7890  125.5090 H   0  0  0  0  0  0  0  0  0  0  0  0
    5.6180   55.1335  126.7516 H   0  0  0  0  0  0  0  0  0  0  0  0
    7.0027   46.1368  130.9191 C   0  0  0  0  0  0  0  0  0  0  0  0
    6.8908   47.2588  131.5265 O   0  0  0  0  0  0  0  0  0  0  0  0
    6.4911   45.9713  129.6164 N   0  0  0  0  0  0  0  0  0  0  0  0
    6.5691   45.0336  129.1272 H   0  0  0  0  0  0  0  0  0  0  0  0
    7.6955   45.0796  131.6980 C   0  0  0  0  0  0  0  0  0  0  0  0
    8.8269   43.2875  130.3007 C   0  0  0  0  0  0  0  0  0  0  0  0
    7.7499   42.6249  130.4102 O   0  0  0  0  0  0  0  0  0  0  0  0
    8.7926   44.5570  130.9714 N   0  0  0  0  0  0  0  0  0  0  0  0
    9.6878   45.1058  130.8766 H   0  0  0  0  0  0  0  0  0  0  0  0
    9.9495   42.7542  129.5463 C   0  0  0  0  0  0  0  0  0  0  0  0
   11.1527   42.8745  130.3904 N   0  0  0  0  0  0  0  0  0  0  0  0
   11.1743   42.0433  131.0453 H   0  0  0  0  0  0  0  0  0  0  0  0
   11.0029   43.7219  130.9857 H   0  0  0  0  0  0  0  0  0  0  0  0
   11.6665   43.7397  128.0559 C   0  0  0  0  0  0  0  0  0  0  0  0
   10.2239   43.3889  128.2145 C   0  0  0  0  0  0  0  0  0  0  0  0
    9.7047   42.6797  127.1378 O   0  0  0  0  0  0  0  0  0  0  0  0
    8.7213   42.6935  127.2241 H   0  0  0  0  0  0  0  0  0  0  0  0
    7.9852   45.6165  133.0730 C   0  0  0  0  0  0  0  0  0  0  0  0
    9.1281   44.8953  133.7407 C   0  0  0  0  0  0  0  0  0  0  0  0
    9.8334   45.4002  134.7954 C   0  0  0  0  0  0  0  0  0  0  0  0
   10.8973   44.6864  135.3693 C   0  0  0  0  0  0  0  0  0  0  0  0
   11.2554   43.4561  134.8794 C   0  0  0  0  0  0  0  0  0  0  0  0
   10.5523   42.9386  133.8182 C   0  0  0  0  0  0  0  0  0  0  0  0
    9.4988   43.6445  133.2493 C   0  0  0  0  0  0  0  0  0  0  0  0
    4.5213   47.3542  129.4125 C   0  0  0  0  0  0  0  0  0  0  0  0
    3.8066   46.3565  130.2571 C   0  0  0  0  0  0  0  0  0  0  0  0
    2.3331   46.5019  130.4043 C   0  0  0  0  0  0  0  0  0  0  0  0
    1.7404   45.3866  129.6115 N   0  0  0  0  0  0  0  0  0  0  0  0
    0.6701   45.6272  128.9867 C   0  0  0  0  0  0  0  0  0  0  0  0
    0.0756   44.5847  128.2193 N   0  0  0  0  0  0  0  0  0  0  0  0
    0.0758   46.9178  129.0533 N   0  0  0  0  0  0  0  0  0  0  0  0
   -0.3158   44.8048  127.2895 H   0  0  0  0  0  0  0  0  0  0  0  0
    0.0333   43.6123  128.5809 H   0  0  0  0  0  0  0  0  0  0  0  0
    0.2219   47.5412  128.2124 H   0  0  0  0  0  0  0  0  0  0  0  0
   -0.4760   47.2366  129.8864 H   0  0  0  0  0  0  0  0  0  0  0  0
 38 39  1  0  0  0
 39 40  1  0  0  0
 39 34  1  0  0  0
 34 35  1  0  0  0
 34 30  1  0  0  0
 30 31  2  0  0  0
 30 32  1  0  0  0
 32 29  1  0  0  0
 29 42  1  0  0  0
 42 43  1  0  0  0
 43 44  2  0  0  0
 44 45  1  0  0  0
 45 46  2  0  0  0
 46 47  1  0  0  0
 47 48  2  0  0  0
 29 25  1  0  0  0
 25 26  2  0  0  0
 25 27  1  0  0  0
 27  1  1  0  0  0
  1 49  1  0  0  0
 49 50  1  0  0  0
 50 51  1  0  0  0
 51 52  1  0  0  0
 52 53  2  0  0  0
 53 54  1  0  0  0
 53 55  1  0  0  0
  1  2  1  0  0  0
  2  3  2  0  0  0
  2  4  1  0  0  0
  4  6  1  0  0  0
  6 18  1  0  0  0
 18 19  1  0  0  0
 19 20  1  0  0  0
 20 21  1  0  0  0
 21 22  1  0  0  0
  6  7  1  0  0  0
  7  8  2  0  0  0
  7  9  1  0  0  0
  9 10  2  0  0  0
 10 11  1  0  0  0
 11 12  2  0  0  0
 12 13  1  0  0  0
 13 14  2  0  0  0
 14 15  1  0  0  0
 15 16  2  0  0  0
 16 17  1  0  0  0
 48 43  1  0  0  0
 17  9  1  0  0  0
 16 11  1  0  0  0
 40 41  1  0  0  0
 35 36  1  0  0  0
 35 37  1  0  0  0
 32 33  1  0  0  0
 27 28  1  0  0  0
 54 56  1  0  0  0
 54 57  1  0  0  0
 55 58  1  0  0  0
 55 59  1  0  0  0
  4  5  1  0  0  0
 22 23  1  0  0  0
 22 24  1  0  0  0
M  END
> <minimizedAffinity>
4.17627

> <CNNscore>
0.4498915076

> <CNNaffinity>
8.1442947388

> <CNN_VS>
3.6640491486

> <CNNaffinity_variance>
0.5099071860

$$$$
[H]O[C@]([H])(C([H])([H])[H])[C@]([H])(C(=O)N([H])[C@]([H])(C(=O)N([H])[C@]([H])(C(=O)N([H])[C@]([H])(C(=O)c1nc2c([H])c([H])c([H])c([H])c2s1)C([H])([H])C([H])([H])C([H])([H])C([H])([H])N([H])[H])C([H])([H])C([H])([H])C([H])([H])N=C(N([H])[H])N([H])[H])C([H])([H])c1c([H])c([H])c([H])c([H])c1[H])N([H])[H]


 59 61  0  0  0  0  0  0  0  0999 V2000
    6.6350   46.6659  130.4361 C   0  0  0  0  0  0  0  0  0  0  0  0
    7.6349   45.5228  130.3662 C   0  0  0  0  0  0  0  0  0  0  0  0
    8.2981   45.3922  131.4174 O   0  0  0  0  0  0  0  0  0  0  0  0
    7.8218   44.6923  129.2735 N   0  0  0  0  0  0  0  0  0  0  0  0
    7.2081   44.9201  128.4071 H   0  0  0  0  0  0  0  0  0  0  0  0
    8.6909   43.5847  129.0633 C   0  0  0  0  0  0  0  0  0  0  0  0
    8.6945   42.5884  130.1322 C   0  0  0  0  0  0  0  0  0  0  0  0
    8.1162   41.4750  130.1012 O   0  0  0  0  0  0  0  0  0  0  0  0
    9.4335   42.8485  131.3902 C   0  0  0  0  0  0  0  0  0  0  0  0
   10.7188   43.1316  131.5202 N   0  0  0  0  0  0  0  0  0  0  0  0
   11.2201   43.3689  132.6900 C   0  0  0  0  0  0  0  0  0  0  0  0
   12.5770   43.6893  132.9520 C   0  0  0  0  0  0  0  0  0  0  0  0
   12.9849   43.9265  134.2315 C   0  0  0  0  0  0  0  0  0  0  0  0
   12.1538   43.8749  135.3150 C   0  0  0  0  0  0  0  0  0  0  0  0
   10.8275   43.5632  135.0746 C   0  0  0  0  0  0  0  0  0  0  0  0
   10.3840   43.3159  133.7679 C   0  0  0  0  0  0  0  0  0  0  0  0
    8.9002   42.9205  133.0163 S   0  0  0  0  0  0  0  0  0  0  0  0
   10.0043   44.0656  128.5601 C   0  0  0  0  0  0  0  0  0  0  0  0
   10.2853   45.5256  128.8757 C   0  0  0  0  0  0  0  0  0  0  0  0
   11.7262   45.7104  129.3259 C   0  0  0  0  0  0  0  0  0  0  0  0
   12.5754   44.5063  129.0698 C   0  0  0  0  0  0  0  0  0  0  0  0
   13.5838   44.3746  130.1187 N   0  0  0  0  0  0  0  0  0  0  0  0
   13.6585   43.3622  130.3525 H   0  0  0  0  0  0  0  0  0  0  0  0
   13.3035   44.9291  130.9488 H   0  0  0  0  0  0  0  0  0  0  0  0
    8.0801   48.6266  129.7943 C   0  0  0  0  0  0  0  0  0  0  0  0
    8.0930   48.2793  128.5616 O   0  0  0  0  0  0  0  0  0  0  0  0
    7.3707   47.8678  130.7467 N   0  0  0  0  0  0  0  0  0  0  0  0
    7.3475   48.1725  131.7623 H   0  0  0  0  0  0  0  0  0  0  0  0
    8.8554   49.8559  130.0975 C   0  0  0  0  0  0  0  0  0  0  0  0
    7.0593   51.4758  129.3264 C   0  0  0  0  0  0  0  0  0  0  0  0
    6.2740   50.8673  130.1163 O   0  0  0  0  0  0  0  0  0  0  0  0
    8.3941   50.9459  129.3203 N   0  0  0  0  0  0  0  0  0  0  0  0
    9.0446   51.4548  128.6649 H   0  0  0  0  0  0  0  0  0  0  0  0
    6.5872   52.6010  128.5359 C   0  0  0  0  0  0  0  0  0  0  0  0
    5.5544   52.0963  127.6124 N   0  0  0  0  0  0  0  0  0  0  0  0
    4.6375   52.0586  128.1399 H   0  0  0  0  0  0  0  0  0  0  0  0
    5.8184   51.1066  127.3986 H   0  0  0  0  0  0  0  0  0  0  0  0
    7.5432   53.0293  126.2902 C   0  0  0  0  0  0  0  0  0  0  0  0
    7.6230   53.3470  127.7468 C   0  0  0  0  0  0  0  0  0  0  0  0
    7.6579   54.7103  128.0154 O   0  0  0  0  0  0  0  0  0  0  0  0
    7.9353   54.8169  128.9570 H   0  0  0  0  0  0  0  0  0  0  0  0
    8.8776   50.0467  131.5894 C   0  0  0  0  0  0  0  0  0  0  0  0
    9.4692   48.8622  132.3099 C   0  0  0  0  0  0  0  0  0  0  0  0
    8.9697   48.3535  133.4747 C   0  0  0  0  0  0  0  0  0  0  0  0
    9.5713   47.2540  134.1069 C   0  0  0  0  0  0  0  0  0  0  0  0
   10.6834   46.6612  133.5648 C   0  0  0  0  0  0  0  0  0  0  0  0
   11.1942   47.1651  132.3929 C   0  0  0  0  0  0  0  0  0  0  0  0
   10.5993   48.2537  131.7661 C   0  0  0  0  0  0  0  0  0  0  0  0
    5.8043   46.8096  129.2431 C   0  0  0  0  0  0  0  0  0  0  0  0
    4.3836   47.2315  129.3945 C   0  0  0  0  0  0  0  0  0  0  0  0
    3.4798   46.3516  130.1836 C   0  0  0  0  0  0  0  0  0  0  0  0
    2.3638   45.9949  129.2611 N   0  0  0  0  0  0  0  0  0  0  0  0
    1.3501   45.4390  129.7684 C   0  0  0  0  0  0  0  0  0  0  0  0
    0.2651   45.0840  128.9164 N   0  0  0  0  0  0  0  0  0  0  0  0
    1.3008   45.1760  131.1654 N   0  0  0  0  0  0  0  0  0  0  0  0
   -0.7021   45.2478  129.2386 H   0  0  0  0  0  0  0  0  0  0  0  0
    0.4346   44.6669  127.9807 H   0  0  0  0  0  0  0  0  0  0  0  0
    0.7144   45.8388  131.7432 H   0  0  0  0  0  0  0  0  0  0  0  0
    1.8148   44.3722  131.6012 H   0  0  0  0  0  0  0  0  0  0  0  0
 38 39  1  0  0  0
 39 40  1  0  0  0
 39 34  1  0  0  0
 34 35  1  0  0  0
 34 30  1  0  0  0
 30 31  2  0  0  0
 30 32  1  0  0  0
 32 29  1  0  0  0
 29 42  1  0  0  0
 42 43  1  0  0  0
 43 44  2  0  0  0
 44 45  1  0  0  0
 45 46  2  0  0  0
 46 47  1  0  0  0
 47 48  2  0  0  0
 29 25  1  0  0  0
 25 26  2  0  0  0
 25 27  1  0  0  0
 27  1  1  0  0  0
  1 49  1  0  0  0
 49 50  1  0  0  0
 50 51  1  0  0  0
 51 52  1  0  0  0
 52 53  2  0  0  0
 53 54  1  0  0  0
 53 55  1  0  0  0
  1  2  1  0  0  0
  2  3  2  0  0  0
  2  4  1  0  0  0
  4  6  1  0  0  0
  6 18  1  0  0  0
 18 19  1  0  0  0
 19 20  1  0  0  0
 20 21  1  0  0  0
 21 22  1  0  0  0
  6  7  1  0  0  0
  7  8  2  0  0  0
  7  9  1  0  0  0
  9 10  2  0  0  0
 10 11  1  0  0  0
 11 12  2  0  0  0
 12 13  1  0  0  0
 13 14  2  0  0  0
 14 15  1  0  0  0
 15 16  2  0  0  0
 16 17  1  0  0  0
 48 43  1  0  0  0
 17  9  1  0  0  0
 16 11  1  0  0  0
 40 41  1  0  0  0
 35 36  1  0  0  0
 35 37  1  0  0  0
 32 33  1  0  0  0
 27 28  1  0  0  0
 54 56  1  0  0  0
 54 57  1  0  0  0
 55 58  1  0  0  0
 55 59  1  0  0  0
  4  5  1  0  0  0
 22 23  1  0  0  0
 22 24  1  0  0  0
M  END
> <minimizedAffinity>
5.69461

> <CNNscore>
0.4193297923

> <CNNaffinity>
8.3402061462

> <CNN_VS>
3.4972968102

> <CNNaffinity_variance>
0.4887253642

$$$$
[H]O[C@]([H])(C([H])([H])[H])[C@]([H])(C(=O)N([H])[C@]([H])(C(=O)N([H])[C@]([H])(C(=O)N([H])[C@]([H])(C(=O)c1nc2c([H])c([H])c([H])c([H])c2s1)C([H])([H])C([H])([H])C([H])([H])C([H])([H])N([H])[H])C([H])([H])C([H])([H])C([H])([H])N=C(N([H])[H])N([H])[H])C([H])([H])c1c([H])c([H])c([H])c([H])c1[H])N([H])[H]


 59 61  0  0  0  0  0  0  0  0999 V2000
    6.2461   46.9771  128.7641 C   0  0  0  0  0  0  0  0  0  0  0  0
    7.0275   48.2811  128.7472 C   0  0  0  0  0  0  0  0  0  0  0  0
    7.4588   48.5747  127.6115 O   0  0  0  0  0  0  0  0  0  0  0  0
    7.2593   49.0865  129.8501 N   0  0  0  0  0  0  0  0  0  0  0  0
    6.8599   48.7141  130.7887 H   0  0  0  0  0  0  0  0  0  0  0  0
    7.9453   50.3258  129.9906 C   0  0  0  0  0  0  0  0  0  0  0  0
    8.7380   50.4603  131.2107 C   0  0  0  0  0  0  0  0  0  0  0  0
    9.1003   51.5407  131.7364 O   0  0  0  0  0  0  0  0  0  0  0  0
    9.1813   49.2534  131.9477 C   0  0  0  0  0  0  0  0  0  0  0  0
    8.6389   48.7359  133.0372 N   0  0  0  0  0  0  0  0  0  0  0  0
    9.1195   47.6504  133.5536 C   0  0  0  0  0  0  0  0  0  0  0  0
    8.6194   47.0007  134.7112 C   0  0  0  0  0  0  0  0  0  0  0  0
    9.2088   45.8540  135.1555 C   0  0  0  0  0  0  0  0  0  0  0  0
   10.2823   45.2671  134.5466 C   0  0  0  0  0  0  0  0  0  0  0  0
   10.7810   45.8899  133.4165 C   0  0  0  0  0  0  0  0  0  0  0  0
   10.1917   47.0694  132.9399 C   0  0  0  0  0  0  0  0  0  0  0  0
   10.4461   48.1421  131.6331 S   0  0  0  0  0  0  0  0  0  0  0  0
    7.0382   51.4458  129.6267 C   0  0  0  0  0  0  0  0  0  0  0  0
    7.1558   51.8842  128.1761 C   0  0  0  0  0  0  0  0  0  0  0  0
    7.1236   53.4011  128.0689 C   0  0  0  0  0  0  0  0  0  0  0  0
    7.4256   53.8939  126.6896 C   0  0  0  0  0  0  0  0  0  0  0  0
    6.4209   54.8713  126.2779 N   0  0  0  0  0  0  0  0  0  0  0  0
    6.9186   55.6347  125.7733 H   0  0  0  0  0  0  0  0  0  0  0  0
    5.9234   55.2376  127.1106 H   0  0  0  0  0  0  0  0  0  0  0  0
    8.3005   45.6417  129.3478 C   0  0  0  0  0  0  0  0  0  0  0  0
    8.5344   46.3576  130.3837 O   0  0  0  0  0  0  0  0  0  0  0  0
    7.1841   45.9059  128.5294 N   0  0  0  0  0  0  0  0  0  0  0  0
    6.9851   45.2964  127.6846 H   0  0  0  0  0  0  0  0  0  0  0  0
    9.2847   44.5550  129.1134 C   0  0  0  0  0  0  0  0  0  0  0  0
   11.8232   44.5576  129.1050 C   0  0  0  0  0  0  0  0  0  0  0  0
   11.7478   43.9063  128.0183 O   0  0  0  0  0  0  0  0  0  0  0  0
   10.5441   44.8889  129.6677 N   0  0  0  0  0  0  0  0  0  0  0  0
   10.6101   45.4317  130.5691 H   0  0  0  0  0  0  0  0  0  0  0  0
   13.1168   44.9083  129.6685 C   0  0  0  0  0  0  0  0  0  0  0  0
   14.1552   44.3001  128.8163 N   0  0  0  0  0  0  0  0  0  0  0  0
   14.3184   44.9450  127.9930 H   0  0  0  0  0  0  0  0  0  0  0  0
   13.7340   43.4229  128.4314 H   0  0  0  0  0  0  0  0  0  0  0  0
   12.9659   45.5833  132.0480 C   0  0  0  0  0  0  0  0  0  0  0  0
   13.3588   44.5046  131.0934 C   0  0  0  0  0  0  0  0  0  0  0  0
   12.8359   43.2588  131.4196 O   0  0  0  0  0  0  0  0  0  0  0  0
   13.3214   42.5871  130.8830 H   0  0  0  0  0  0  0  0  0  0  0  0
    8.6705   43.2553  129.5564 C   0  0  0  0  0  0  0  0  0  0  0  0
    9.0128   42.9172  130.9849 C   0  0  0  0  0  0  0  0  0  0  0  0
   10.2113   42.3920  131.3757 C   0  0  0  0  0  0  0  0  0  0  0  0
   10.4688   42.0859  132.7214 C   0  0  0  0  0  0  0  0  0  0  0  0
    9.5147   42.3090  133.6815 C   0  0  0  0  0  0  0  0  0  0  0  0
    8.3052   42.8373  133.2991 C   0  0  0  0  0  0  0  0  0  0  0  0
    8.0492   43.1407  131.9671 C   0  0  0  0  0  0  0  0  0  0  0  0
    5.4502   46.7707  129.9715 C   0  0  0  0  0  0  0  0  0  0  0  0
    4.0064   47.1376  129.9605 C   0  0  0  0  0  0  0  0  0  0  0  0
    3.0332   46.1374  130.4763 C   0  0  0  0  0  0  0  0  0  0  0  0
    2.0517   45.9290  129.3731 N   0  0  0  0  0  0  0  0  0  0  0  0
    1.0446   45.2102  129.6239 C   0  0  0  0  0  0  0  0  0  0  0  0
    0.0866   44.9894  128.5931 N   0  0  0  0  0  0  0  0  0  0  0  0
    0.8775   44.6357  130.9144 N   0  0  0  0  0  0  0  0  0  0  0  0
   -0.9188   45.0151  128.8267 H   0  0  0  0  0  0  0  0  0  0  0  0
    0.3858   44.8061  127.6158 H   0  0  0  0  0  0  0  0  0  0  0  0
    0.1799   45.1126  131.5492 H   0  0  0  0  0  0  0  0  0  0  0  0
    1.4132   43.7882  131.2224 H   0  0  0  0  0  0  0  0  0  0  0  0
 38 39  1  0  0  0
 39 40  1  0  0  0
 39 34  1  0  0  0
 34 35  1  0  0  0
 34 30  1  0  0  0
 30 31  2  0  0  0
 30 32  1  0  0  0
 32 29  1  0  0  0
 29 42  1  0  0  0
 42 43  1  0  0  0
 43 44  2  0  0  0
 44 45  1  0  0  0
 45 46  2  0  0  0
 46 47  1  0  0  0
 47 48  2  0  0  0
 29 25  1  0  0  0
 25 26  2  0  0  0
 25 27  1  0  0  0
 27  1  1  0  0  0
  1 49  1  0  0  0
 49 50  1  0  0  0
 50 51  1  0  0  0
 51 52  1  0  0  0
 52 53  2  0  0  0
 53 54  1  0  0  0
 53 55  1  0  0  0
  1  2  1  0  0  0
  2  3  2  0  0  0
  2  4  1  0  0  0
  4  6  1  0  0  0
  6 18  1  0  0  0
 18 19  1  0  0  0
 19 20  1  0  0  0
 20 21  1  0  0  0
 21 22  1  0  0  0
  6  7  1  0  0  0
  7  8  2  0  0  0
  7  9  1  0  0  0
  9 10  2  0  0  0
 10 11  1  0  0  0
 11 12  2  0  0  0
 12 13  1  0  0  0
 13 14  2  0  0  0
 14 15  1  0  0  0
 15 16  2  0  0  0
 16 17  1  0  0  0
 48 43  1  0  0  0
 17  9  1  0  0  0
 16 11  1  0  0  0
 40 41  1  0  0  0
 35 36  1  0  0  0
 35 37  1  0  0  0
 32 33  1  0  0  0
 27 28  1  0  0  0
 54 56  1  0  0  0
 54 57  1  0  0  0
 55 58  1  0  0  0
 55 59  1  0  0  0
  4  5  1  0  0  0
 22 23  1  0  0  0
 22 24  1  0  0  0
M  END
> <minimizedAffinity>
4.22220

> <CNNscore>
0.4093651772

> <CNNaffinity>
8.4079961777

> <CNN_VS>
3.4419407845

> <CNNaffinity_variance>
0.3967082500

$$$$
[H]O[C@]([H])(C([H])([H])[H])[C@]([H])(C(=O)N([H])[C@]([H])(C(=O)N([H])[C@]([H])(C(=O)N([H])[C@]([H])(C(=O)c1nc2c([H])c([H])c([H])c([H])c2s1)C([H])([H])C([H])([H])C([H])([H])C([H])([H])N([H])[H])C([H])([H])C([H])([H])C([H])([H])N=C(N([H])[H])N([H])[H])C([H])([H])c1c([H])c([H])c([H])c([H])c1[H])N([H])[H]


 59 61  0  0  0  0  0  0  0  0999 V2000
    6.0743   46.8918  128.8928 C   0  0  0  0  0  0  0  0  0  0  0  0
    6.8746   48.1830  128.8343 C   0  0  0  0  0  0  0  0  0  0  0  0
    7.2539   48.4680  127.6780 O   0  0  0  0  0  0  0  0  0  0  0  0
    7.1735   48.9863  129.9225 N   0  0  0  0  0  0  0  0  0  0  0  0
    6.8151   48.6218  130.8806 H   0  0  0  0  0  0  0  0  0  0  0  0
    7.8854   50.2146  130.0261 C   0  0  0  0  0  0  0  0  0  0  0  0
    8.7372   50.3394  131.2068 C   0  0  0  0  0  0  0  0  0  0  0  0
    9.1773   51.4128  131.6855 O   0  0  0  0  0  0  0  0  0  0  0  0
    9.1503   49.1306  131.9582 C   0  0  0  0  0  0  0  0  0  0  0  0
    8.6128   48.6555  133.0693 N   0  0  0  0  0  0  0  0  0  0  0  0
    9.0630   47.5624  133.5969 C   0  0  0  0  0  0  0  0  0  0  0  0
    8.5642   46.9548  134.7777 C   0  0  0  0  0  0  0  0  0  0  0  0
    9.1191   45.7950  135.2323 C   0  0  0  0  0  0  0  0  0  0  0  0
   10.1557   45.1555  134.6125 C   0  0  0  0  0  0  0  0  0  0  0  0
   10.6527   45.7368  133.4597 C   0  0  0  0  0  0  0  0  0  0  0  0
   10.0984   46.9288  132.9722 C   0  0  0  0  0  0  0  0  0  0  0  0
   10.3645   47.9655  131.6390 S   0  0  0  0  0  0  0  0  0  0  0  0
    6.9803   51.3482  129.7019 C   0  0  0  0  0  0  0  0  0  0  0  0
    7.0661   51.8077  128.2556 C   0  0  0  0  0  0  0  0  0  0  0  0
    7.1326   53.3252  128.1768 C   0  0  0  0  0  0  0  0  0  0  0  0
    7.4184   53.8247  126.7964 C   0  0  0  0  0  0  0  0  0  0  0  0
    6.3467   54.7146  126.3560 N   0  0  0  0  0  0  0  0  0  0  0  0
    6.7911   55.5093  125.8500 H   0  0  0  0  0  0  0  0  0  0  0  0
    5.8075   55.0498  127.1759 H   0  0  0  0  0  0  0  0  0  0  0  0
    8.4153   45.9623  128.9085 C   0  0  0  0  0  0  0  0  0  0  0  0
    8.9351   47.1322  128.8700 O   0  0  0  0  0  0  0  0  0  0  0  0
    7.0157   45.7988  128.9289 N   0  0  0  0  0  0  0  0  0  0  0  0
    6.5923   44.8279  128.9813 H   0  0  0  0  0  0  0  0  0  0  0  0
    9.3987   44.8502  128.9289 C   0  0  0  0  0  0  0  0  0  0  0  0
   11.8494   44.7057  129.5748 C   0  0  0  0  0  0  0  0  0  0  0  0
   11.9942   43.9441  128.5699 O   0  0  0  0  0  0  0  0  0  0  0  0
   10.5025   45.1700  129.7560 N   0  0  0  0  0  0  0  0  0  0  0  0
   10.3860   45.8042  130.5901 H   0  0  0  0  0  0  0  0  0  0  0  0
   12.9854   45.0413  130.4180 C   0  0  0  0  0  0  0  0  0  0  0  0
   14.1151   44.1875  130.0064 N   0  0  0  0  0  0  0  0  0  0  0  0
   14.5780   44.6423  129.1702 H   0  0  0  0  0  0  0  0  0  0  0  0
   13.6909   43.2938  129.6654 H   0  0  0  0  0  0  0  0  0  0  0  0
   12.8392   43.4753  132.3328 C   0  0  0  0  0  0  0  0  0  0  0  0
   12.7849   44.9027  131.8987 C   0  0  0  0  0  0  0  0  0  0  0  0
   13.5938   45.7428  132.6549 O   0  0  0  0  0  0  0  0  0  0  0  0
   13.3247   46.6707  132.4514 H   0  0  0  0  0  0  0  0  0  0  0  0
    8.6650   43.5741  129.2385 C   0  0  0  0  0  0  0  0  0  0  0  0
    8.8743   43.1237  130.6618 C   0  0  0  0  0  0  0  0  0  0  0  0
    8.0442   43.4557  131.6941 C   0  0  0  0  0  0  0  0  0  0  0  0
    8.2971   43.0156  133.0030 C   0  0  0  0  0  0  0  0  0  0  0  0
    9.3925   42.2364  133.2766 C   0  0  0  0  0  0  0  0  0  0  0  0
   10.2343   41.8965  132.2451 C   0  0  0  0  0  0  0  0  0  0  0  0
    9.9848   42.3316  130.9489 C   0  0  0  0  0  0  0  0  0  0  0  0
    5.1071   46.8349  129.9861 C   0  0  0  0  0  0  0  0  0  0  0  0
    3.6569   46.9870  129.6807 C   0  0  0  0  0  0  0  0  0  0  0  0
    2.6866   46.2682  130.5499 C   0  0  0  0  0  0  0  0  0  0  0  0
    1.9704   45.3194  129.6496 N   0  0  0  0  0  0  0  0  0  0  0  0
    0.8141   45.6493  129.2648 C   0  0  0  0  0  0  0  0  0  0  0  0
    0.1005   44.7666  128.4043 N   0  0  0  0  0  0  0  0  0  0  0  0
    0.2425   46.8815  129.6873 N   0  0  0  0  0  0  0  0  0  0  0  0
   -0.4348   45.1586  127.6131 H   0  0  0  0  0  0  0  0  0  0  0  0
    0.1139   43.7402  128.5613 H   0  0  0  0  0  0  0  0  0  0  0  0
    0.2532   47.6663  128.9795 H   0  0  0  0  0  0  0  0  0  0  0  0
   -0.1669   47.0084  130.6446 H   0  0  0  0  0  0  0  0  0  0  0  0
 38 39  1  0  0  0
 39 40  1  0  0  0
 39 34  1  0  0  0
 34 35  1  0  0  0
 34 30  1  0  0  0
 30 31  2  0  0  0
 30 32  1  0  0  0
 32 29  1  0  0  0
 29 42  1  0  0  0
 42 43  1  0  0  0
 43 44  2  0  0  0
 44 45  1  0  0  0
 45 46  2  0  0  0
 46 47  1  0  0  0
 47 48  2  0  0  0
 29 25  1  0  0  0
 25 26  2  0  0  0
 25 27  1  0  0  0
 27  1  1  0  0  0
  1 49  1  0  0  0
 49 50  1  0  0  0
 50 51  1  0  0  0
 51 52  1  0  0  0
 52 53  2  0  0  0
 53 54  1  0  0  0
 53 55  1  0  0  0
  1  2  1  0  0  0
  2  3  2  0  0  0
  2  4  1  0  0  0
  4  6  1  0  0  0
  6 18  1  0  0  0
 18 19  1  0  0  0
 19 20  1  0  0  0
 20 21  1  0  0  0
 21 22  1  0  0  0
  6  7  1  0  0  0
  7  8  2  0  0  0
  7  9  1  0  0  0
  9 10  2  0  0  0
 10 11  1  0  0  0
 11 12  2  0  0  0
 12 13  1  0  0  0
 13 14  2  0  0  0
 14 15  1  0  0  0
 15 16  2  0  0  0
 16 17  1  0  0  0
 48 43  1  0  0  0
 17  9  1  0  0  0
 16 11  1  0  0  0
 40 41  1  0  0  0
 35 36  1  0  0  0
 35 37  1  0  0  0
 32 33  1  0  0  0
 27 28  1  0  0  0
 54 56  1  0  0  0
 54 57  1  0  0  0
 55 58  1  0  0  0
 55 59  1  0  0  0
  4  5  1  0  0  0
 22 23  1  0  0  0
 22 24  1  0  0  0
M  END
> <minimizedAffinity>
3.11388

> <CNNscore>
0.4079172015

> <CNNaffinity>
8.4625291824

> <CNN_VS>
3.4520111084

> <CNNaffinity_variance>
0.4827206731

$$$$
[H]O[C@]([H])(C([H])([H])[H])[C@]([H])(C(=O)N([H])[C@]([H])(C(=O)N([H])[C@]([H])(C(=O)N([H])[C@]([H])(C(=O)c1nc2c([H])c([H])c([H])c([H])c2s1)C([H])([H])C([H])([H])C([H])([H])C([H])([H])N([H])[H])C([H])([H])C([H])([H])C([H])([H])N=C(N([H])[H])N([H])[H])C([H])([H])c1c([H])c([H])c([H])c([H])c1[H])N([H])[H]


 59 61  0  0  0  0  0  0  0  0999 V2000
    9.2202   49.8840  131.1129 C   0  0  0  0  0  0  0  0  0  0  0  0
    9.8296   49.5314  132.4603 C   0  0  0  0  0  0  0  0  0  0  0  0
    9.8840   50.5071  133.2396 O   0  0  0  0  0  0  0  0  0  0  0  0
   10.2878   48.2760  132.8246 N   0  0  0  0  0  0  0  0  0  0  0  0
   10.2148   47.5140  132.0545 H   0  0  0  0  0  0  0  0  0  0  0  0
   10.8581   47.7902  134.0349 C   0  0  0  0  0  0  0  0  0  0  0  0
   11.8221   46.7040  133.8734 C   0  0  0  0  0  0  0  0  0  0  0  0
   13.0008   46.6973  134.3040 O   0  0  0  0  0  0  0  0  0  0  0  0
   11.4368   45.4674  133.1532 C   0  0  0  0  0  0  0  0  0  0  0  0
   10.3808   45.2883  132.3773 N   0  0  0  0  0  0  0  0  0  0  0  0
   10.1915   44.1535  131.7838 C   0  0  0  0  0  0  0  0  0  0  0  0
    9.1042   43.8473  130.9257 C   0  0  0  0  0  0  0  0  0  0  0  0
    9.0178   42.6135  130.3512 C   0  0  0  0  0  0  0  0  0  0  0  0
    9.9326   41.6179  130.5500 C   0  0  0  0  0  0  0  0  0  0  0  0
   10.9985   41.9022  131.3849 C   0  0  0  0  0  0  0  0  0  0  0  0
   11.1095   43.1636  131.9867 C   0  0  0  0  0  0  0  0  0  0  0  0
   12.2088   43.9427  133.0391 S   0  0  0  0  0  0  0  0  0  0  0  0
    9.7948   47.6260  135.0605 C   0  0  0  0  0  0  0  0  0  0  0  0
    9.3524   46.1857  135.2607 C   0  0  0  0  0  0  0  0  0  0  0  0
    7.8751   46.0271  134.9352 C   0  0  0  0  0  0  0  0  0  0  0  0
    7.6362   45.2771  133.6637 C   0  0  0  0  0  0  0  0  0  0  0  0
    7.5911   46.2062  132.5372 N   0  0  0  0  0  0  0  0  0  0  0  0
    8.0976   45.7585  131.7447 H   0  0  0  0  0  0  0  0  0  0  0  0
    8.0351   47.1047  132.8033 H   0  0  0  0  0  0  0  0  0  0  0  0
    9.2842   47.6618  129.9288 C   0  0  0  0  0  0  0  0  0  0  0  0
   10.5516   47.7313  129.7580 O   0  0  0  0  0  0  0  0  0  0  0  0
    8.5919   48.6925  130.5954 N   0  0  0  0  0  0  0  0  0  0  0  0
    7.5454   48.6189  130.7512 H   0  0  0  0  0  0  0  0  0  0  0  0
    8.6530   46.4370  129.3758 C   0  0  0  0  0  0  0  0  0  0  0  0
    6.4546   47.5599  128.7839 C   0  0  0  0  0  0  0  0  0  0  0  0
    7.1463   48.4189  128.1559 O   0  0  0  0  0  0  0  0  0  0  0  0
    7.2412   46.5372  129.4148 N   0  0  0  0  0  0  0  0  0  0  0  0
    6.6637   45.8239  129.9337 H   0  0  0  0  0  0  0  0  0  0  0  0
    5.0044   47.6581  128.8153 C   0  0  0  0  0  0  0  0  0  0  0  0
    4.6541   49.0901  128.8480 N   0  0  0  0  0  0  0  0  0  0  0  0
    4.6754   49.4525  127.8537 H   0  0  0  0  0  0  0  0  0  0  0  0
    5.4347   49.5657  129.3575 H   0  0  0  0  0  0  0  0  0  0  0  0
    3.0698   46.2658  129.4929 C   0  0  0  0  0  0  0  0  0  0  0  0
    4.3099   46.9613  129.9485 C   0  0  0  0  0  0  0  0  0  0  0  0
    5.1488   46.1560  130.7098 O   0  0  0  0  0  0  0  0  0  0  0  0
    5.8076   46.7481  131.1459 H   0  0  0  0  0  0  0  0  0  0  0  0
    9.2766   46.1446  128.0385 C   0  0  0  0  0  0  0  0  0  0  0  0
   10.4905   45.2583  128.1538 C   0  0  0  0  0  0  0  0  0  0  0  0
   10.6160   44.0546  127.5211 C   0  0  0  0  0  0  0  0  0  0  0  0
   11.7673   43.2663  127.6761 C   0  0  0  0  0  0  0  0  0  0  0  0
   12.8001   43.6907  128.4730 C   0  0  0  0  0  0  0  0  0  0  0  0
   12.6842   44.9005  129.1143 C   0  0  0  0  0  0  0  0  0  0  0  0
   11.5448   45.6817  128.9616 C   0  0  0  0  0  0  0  0  0  0  0  0
    8.3115   51.0273  131.1467 C   0  0  0  0  0  0  0  0  0  0  0  0
    7.0764   50.9976  130.3142 C   0  0  0  0  0  0  0  0  0  0  0  0
    7.2046   51.3385  128.8716 C   0  0  0  0  0  0  0  0  0  0  0  0
    7.0155   52.8155  128.7918 N   0  0  0  0  0  0  0  0  0  0  0  0
    7.2172   53.3642  127.6728 C   0  0  0  0  0  0  0  0  0  0  0  0
    7.0463   54.7738  127.5601 N   0  0  0  0  0  0  0  0  0  0  0  0
    7.6073   52.5817  126.5508 N   0  0  0  0  0  0  0  0  0  0  0  0
    6.5788   55.1588  126.7238 H   0  0  0  0  0  0  0  0  0  0  0  0
    7.3825   55.4142  128.3052 H   0  0  0  0  0  0  0  0  0  0  0  0
    6.8491   52.3686  125.8459 H   0  0  0  0  0  0  0  0  0  0  0  0
    8.5891   52.2341  126.4261 H   0  0  0  0  0  0  0  0  0  0  0  0
 38 39  1  0  0  0
 39 40  1  0  0  0
 39 34  1  0  0  0
 34 35  1  0  0  0
 34 30  1  0  0  0
 30 31  2  0  0  0
 30 32  1  0  0  0
 32 29  1  0  0  0
 29 42  1  0  0  0
 42 43  1  0  0  0
 43 44  2  0  0  0
 44 45  1  0  0  0
 45 46  2  0  0  0
 46 47  1  0  0  0
 47 48  2  0  0  0
 29 25  1  0  0  0
 25 26  2  0  0  0
 25 27  1  0  0  0
 27  1  1  0  0  0
  1 49  1  0  0  0
 49 50  1  0  0  0
 50 51  1  0  0  0
 51 52  1  0  0  0
 52 53  2  0  0  0
 53 54  1  0  0  0
 53 55  1  0  0  0
  1  2  1  0  0  0
  2  3  2  0  0  0
  2  4  1  0  0  0
  4  6  1  0  0  0
  6 18  1  0  0  0
 18 19  1  0  0  0
 19 20  1  0  0  0
 20 21  1  0  0  0
 21 22  1  0  0  0
  6  7  1  0  0  0
  7  8  2  0  0  0
  7  9  1  0  0  0
  9 10  2  0  0  0
 10 11  1  0  0  0
 11 12  2  0  0  0
 12 13  1  0  0  0
 13 14  2  0  0  0
 14 15  1  0  0  0
 15 16  2  0  0  0
 16 17  1  0  0  0
 48 43  1  0  0  0
 17  9  1  0  0  0
 16 11  1  0  0  0
 40 41  1  0  0  0
 35 36  1  0  0  0
 35 37  1  0  0  0
 32 33  1  0  0  0
 27 28  1  0  0  0
 54 56  1  0  0  0
 54 57  1  0  0  0
 55 58  1  0  0  0
 55 59  1  0  0  0
  4  5  1  0  0  0
 22 23  1  0  0  0
 22 24  1  0  0  0
M  END
> <minimizedAffinity>
6.59146

> <CNNscore>
0.4075853229

> <CNNaffinity>
8.1515369415

> <CNN_VS>
3.3224468231

> <CNNaffinity_variance>
0.4910756052

$$$$
[H]O[C@]([H])(C([H])([H])[H])[C@]([H])(C(=O)N([H])[C@]([H])(C(=O)N([H])[C@]([H])(C(=O)N([H])[C@]([H])(C(=O)c1nc2c([H])c([H])c([H])c([H])c2s1)C([H])([H])C([H])([H])C([H])([H])C([H])([H])N([H])[H])C([H])([H])C([H])([H])C([H])([H])N=C(N([H])[H])N([H])[H])C([H])([H])c1c([H])c([H])c([H])c([H])c1[H])N([H])[H]


 59 61  0  0  0  0  0  0  0  0999 V2000
    6.8175   47.3631  129.8337 C   0  0  0  0  0  0  0  0  0  0  0  0
    7.7780   46.2884  129.3503 C   0  0  0  0  0  0  0  0  0  0  0  0
    8.7814   46.7579  128.7714 O   0  0  0  0  0  0  0  0  0  0  0  0
    7.5972   44.9249  129.5136 N   0  0  0  0  0  0  0  0  0  0  0  0
    6.6741   44.6350  130.0064 H   0  0  0  0  0  0  0  0  0  0  0  0
    8.4010   43.8112  129.1395 C   0  0  0  0  0  0  0  0  0  0  0  0
    8.8108   42.9445  130.2423 C   0  0  0  0  0  0  0  0  0  0  0  0
    8.8625   41.6910  130.2117 O   0  0  0  0  0  0  0  0  0  0  0  0
    9.2215   43.5330  131.5389 C   0  0  0  0  0  0  0  0  0  0  0  0
    8.6444   44.5336  132.1831 N   0  0  0  0  0  0  0  0  0  0  0  0
    9.0997   44.9198  133.3318 C   0  0  0  0  0  0  0  0  0  0  0  0
    8.5617   45.9721  134.1163 C   0  0  0  0  0  0  0  0  0  0  0  0
    9.1270   46.2818  135.3181 C   0  0  0  0  0  0  0  0  0  0  0  0
   10.2105   45.6309  135.8376 C   0  0  0  0  0  0  0  0  0  0  0  0
   10.7461   44.6023  135.0831 C   0  0  0  0  0  0  0  0  0  0  0  0
   10.1821   44.2648  133.8447 C   0  0  0  0  0  0  0  0  0  0  0  0
   10.4828   43.1121  132.6185 S   0  0  0  0  0  0  0  0  0  0  0  0
    9.4457   44.2472  128.1760 C   0  0  0  0  0  0  0  0  0  0  0  0
   10.8462   43.7791  128.5360 C   0  0  0  0  0  0  0  0  0  0  0  0
   11.6753   44.9326  129.0794 C   0  0  0  0  0  0  0  0  0  0  0  0
   12.7413   44.4869  130.0290 C   0  0  0  0  0  0  0  0  0  0  0  0
   12.5791   45.1628  131.3140 N   0  0  0  0  0  0  0  0  0  0  0  0
   12.7678   44.4609  132.0603 H   0  0  0  0  0  0  0  0  0  0  0  0
   11.6174   45.5423  131.3939 H   0  0  0  0  0  0  0  0  0  0  0  0
    6.9389   49.8391  129.3873 C   0  0  0  0  0  0  0  0  0  0  0  0
    5.7099   49.8870  129.0301 O   0  0  0  0  0  0  0  0  0  0  0  0
    7.5208   48.6226  129.7966 N   0  0  0  0  0  0  0  0  0  0  0  0
    8.5334   48.5940  130.1104 H   0  0  0  0  0  0  0  0  0  0  0  0
    7.6504   51.1408  129.3272 C   0  0  0  0  0  0  0  0  0  0  0  0
    7.1504   52.9879  127.6593 C   0  0  0  0  0  0  0  0  0  0  0  0
    8.3043   52.7671  127.1791 O   0  0  0  0  0  0  0  0  0  0  0  0
    6.8187   52.1435  128.7726 N   0  0  0  0  0  0  0  0  0  0  0  0
    5.8588   52.3278  129.1677 H   0  0  0  0  0  0  0  0  0  0  0  0
    6.2932   54.0112  127.0829 C   0  0  0  0  0  0  0  0  0  0  0  0
    5.0522   53.3536  126.6336 N   0  0  0  0  0  0  0  0  0  0  0  0
    4.4114   53.2625  127.4710 H   0  0  0  0  0  0  0  0  0  0  0  0
    5.3253   52.3818  126.3576 H   0  0  0  0  0  0  0  0  0  0  0  0
    8.2718   55.2240  126.2141 C   0  0  0  0  0  0  0  0  0  0  0  0
    6.8660   54.8008  125.9425 C   0  0  0  0  0  0  0  0  0  0  0  0
    6.6993   54.1959  124.7023 O   0  0  0  0  0  0  0  0  0  0  0  0
    5.7295   54.1610  124.5208 H   0  0  0  0  0  0  0  0  0  0  0  0
    8.2414   51.4211  130.6818 C   0  0  0  0  0  0  0  0  0  0  0  0
    9.1188   50.2959  131.1682 C   0  0  0  0  0  0  0  0  0  0  0  0
    9.9528   49.5781  130.3595 C   0  0  0  0  0  0  0  0  0  0  0  0
   10.7386   48.5317  130.8680 C   0  0  0  0  0  0  0  0  0  0  0  0
   10.6855   48.2041  132.1991 C   0  0  0  0  0  0  0  0  0  0  0  0
    9.8495   48.9200  133.0218 C   0  0  0  0  0  0  0  0  0  0  0  0
    9.0712   49.9562  132.5193 C   0  0  0  0  0  0  0  0  0  0  0  0
    5.5512   47.4065  129.1067 C   0  0  0  0  0  0  0  0  0  0  0  0
    4.5705   46.3003  129.2906 C   0  0  0  0  0  0  0  0  0  0  0  0
    3.3540   46.5801  130.1001 C   0  0  0  0  0  0  0  0  0  0  0  0
    2.2045   46.1353  129.2608 N   0  0  0  0  0  0  0  0  0  0  0  0
    1.3129   45.4408  129.8234 C   0  0  0  0  0  0  0  0  0  0  0  0
    0.2005   44.9981  129.0517 N   0  0  0  0  0  0  0  0  0  0  0  0
    1.4250   45.1112  131.2026 N   0  0  0  0  0  0  0  0  0  0  0  0
   -0.7446   45.0313  129.4661 H   0  0  0  0  0  0  0  0  0  0  0  0
    0.3281   44.6466  128.0829 H   0  0  0  0  0  0  0  0  0  0  0  0
    0.8236   45.6731  131.8656 H   0  0  0  0  0  0  0  0  0  0  0  0
    2.0660   44.3554  131.5462 H   0  0  0  0  0  0  0  0  0  0  0  0
 38 39  1  0  0  0
 39 40  1  0  0  0
 39 34  1  0  0  0
 34 35  1  0  0  0
 34 30  1  0  0  0
 30 31  2  0  0  0
 30 32  1  0  0  0
 32 29  1  0  0  0
 29 42  1  0  0  0
 42 43  1  0  0  0
 43 44  2  0  0  0
 44 45  1  0  0  0
 45 46  2  0  0  0
 46 47  1  0  0  0
 47 48  2  0  0  0
 29 25  1  0  0  0
 25 26  2  0  0  0
 25 27  1  0  0  0
 27  1  1  0  0  0
  1 49  1  0  0  0
 49 50  1  0  0  0
 50 51  1  0  0  0
 51 52  1  0  0  0
 52 53  2  0  0  0
 53 54  1  0  0  0
 53 55  1  0  0  0
  1  2  1  0  0  0
  2  3  2  0  0  0
  2  4  1  0  0  0
  4  6  1  0  0  0
  6 18  1  0  0  0
 18 19  1  0  0  0
 19 20  1  0  0  0
 20 21  1  0  0  0
 21 22  1  0  0  0
  6  7  1  0  0  0
  7  8  2  0  0  0
  7  9  1  0  0  0
  9 10  2  0  0  0
 10 11  1  0  0  0
 11 12  2  0  0  0
 12 13  1  0  0  0
 13 14  2  0  0  0
 14 15  1  0  0  0
 15 16  2  0  0  0
 16 17  1  0  0  0
 48 43  1  0  0  0
 17  9  1  0  0  0
 16 11  1  0  0  0
 40 41  1  0  0  0
 35 36  1  0  0  0
 35 37  1  0  0  0
 32 33  1  0  0  0
 27 28  1  0  0  0
 54 56  1  0  0  0
 54 57  1  0  0  0
 55 58  1  0  0  0
 55 59  1  0  0  0
  4  5  1  0  0  0
 22 23  1  0  0  0
 22 24  1  0  0  0
M  END
> <minimizedAffinity>
5.73851

> <CNNscore>
0.4039238095

> <CNNaffinity>
8.1393213272

> <CNN_VS>
3.2876656055

> <CNNaffinity_variance>
0.4423277974

$$$$
[H]c1nc(N2C([H])([H])[C@@]3([H])N(C([H])([H])[H])C([H])([H])[C@@]2([H])C3([H])[H])c([H])nc1-c1c([H])c([H])c([H])c(F)c1[H]


 21 24  0  0  0  0  0  0  0  0999 V2000
    7.8208   47.7581  130.5922 C   0  0  0  0  0  0  0  0  0  0  0  0
    7.9834   46.3679  130.0529 C   0  0  0  0  0  0  0  0  0  0  0  0
    8.9856   45.4370  130.6685 N   0  0  0  0  0  0  0  0  0  0  0  0
    9.8252   45.8963  131.8236 C   0  0  0  0  0  0  0  0  0  0  0  0
    9.6626   47.2865  132.3630 C   0  0  0  0  0  0  0  0  0  0  0  0
    8.6604   48.2174  131.7473 N   0  0  0  0  0  0  0  0  0  0  0  0
    3.3817   51.2506  128.0179 C   0  0  0  0  0  0  0  0  0  0  0  0
    4.3839   50.3198  128.6336 N   0  0  0  0  0  0  0  0  0  0  0  0
    4.1788   48.8593  128.9075 C   0  0  0  0  0  0  0  0  0  0  0  0
    5.4353   48.3228  129.5266 C   0  0  0  0  0  0  0  0  0  0  0  0
    6.4170   49.4517  129.6354 C   0  0  0  0  0  0  0  0  0  0  0  0
    5.7672   50.6859  129.0835 C   0  0  0  0  0  0  0  0  0  0  0  0
    7.0238   50.1494  129.7027 C   0  0  0  0  0  0  0  0  0  0  0  0
    6.8186   48.6889  129.9765 N   0  0  0  0  0  0  0  0  0  0  0  0
   10.8274   44.9654  132.4392 C   0  0  0  0  0  0  0  0  0  0  0  0
   11.9020   44.3527  131.5908 C   0  0  0  0  0  0  0  0  0  0  0  0
   12.9042   43.4218  132.2065 C   0  0  0  0  0  0  0  0  0  0  0  0
   12.8318   43.1037  133.6706 C   0  0  0  0  0  0  0  0  0  0  0  0
   11.7572   43.7165  134.5190 C   0  0  0  0  0  0  0  0  0  0  0  0
   11.6849   43.3983  135.9831 F   0  0  0  0  0  0  0  0  0  0  0  0
   10.7550   44.6473  133.9034 C   0  0  0  0  0  0  0  0  0  0  0  0
  7  8  1  0  0  0
  8  9  1  0  0  0
  9 10  1  0  0  0
 10 11  1  0  0  0
 11 12  1  0  0  0
 12 13  1  0  0  0
 13 14  1  0  0  0
 14  1  1  0  0  0
  1  2  2  0  0  0
  2  3  1  0  0  0
  3  4  2  0  0  0
  4  5  1  0  0  0
  5  6  2  0  0  0
  4 15  1  0  0  0
 15 16  2  0  0  0
 16 17  1  0  0  0
 17 18  2  0  0  0
 18 19  1  0  0  0
 19 20  1  0  0  0
 19 21  2  0  0  0
 12  8  1  0  0  0
  6  1  1  0  0  0
 21 15  1  0  0  0
 14 10  1  0  0  0
M  END
> <minimizedAffinity>
6.20637

> <CNNscore>
0.4256245196

> <CNNaffinity>
6.9793825150

> <CNN_VS>
2.9705963135

> <CNNaffinity_variance>
1.8585269451

$$$$
[H]c1nc(N2C([H])([H])[C@@]3([H])N(C([H])([H])[H])C([H])([H])[C@@]2([H])C3([H])[H])c([H])nc1-c1c([H])c([H])c([H])c(F)c1[H]


 21 24  0  0  0  0  0  0  0  0999 V2000
    7.5807   47.2269  130.4841 C   0  0  0  0  0  0  0  0  0  0  0  0
    8.9947   47.7250  130.5335 C   0  0  0  0  0  0  0  0  0  0  0  0
   10.0571   46.9017  131.1997 N   0  0  0  0  0  0  0  0  0  0  0  0
    9.7054   45.5804  131.8164 C   0  0  0  0  0  0  0  0  0  0  0  0
    8.2913   45.0823  131.7670 C   0  0  0  0  0  0  0  0  0  0  0  0
    7.2290   45.9055  131.1008 N   0  0  0  0  0  0  0  0  0  0  0  0
    3.3261   50.9927  127.9846 C   0  0  0  0  0  0  0  0  0  0  0  0
    4.3884   50.1695  128.6507 N   0  0  0  0  0  0  0  0  0  0  0  0
    5.3511   50.6507  129.6955 C   0  0  0  0  0  0  0  0  0  0  0  0
    6.2323   49.4991  130.0796 C   0  0  0  0  0  0  0  0  0  0  0  0
    5.8141   48.3062  129.2721 C   0  0  0  0  0  0  0  0  0  0  0  0
    4.6746   48.7205  128.3890 C   0  0  0  0  0  0  0  0  0  0  0  0
    5.5557   47.5688  128.7730 C   0  0  0  0  0  0  0  0  0  0  0  0
    6.5184   48.0501  129.8179 N   0  0  0  0  0  0  0  0  0  0  0  0
   10.7677   44.7572  132.4826 C   0  0  0  0  0  0  0  0  0  0  0  0
   11.8979   44.1939  131.6730 C   0  0  0  0  0  0  0  0  0  0  0  0
   12.9602   43.3707  132.3392 C   0  0  0  0  0  0  0  0  0  0  0  0
   12.8923   43.1107  133.8149 C   0  0  0  0  0  0  0  0  0  0  0  0
   11.7621   43.6740  134.6245 C   0  0  0  0  0  0  0  0  0  0  0  0
   11.6942   43.4140  136.1002 F   0  0  0  0  0  0  0  0  0  0  0  0
   10.6998   44.4972  133.9584 C   0  0  0  0  0  0  0  0  0  0  0  0
  7  8  1  0  0  0
  8  9  1  0  0  0
  9 10  1  0  0  0
 10 11  1  0  0  0
 11 12  1  0  0  0
 12 13  1  0  0  0
 13 14  1  0  0  0
 14  1  1  0  0  0
  1  2  2  0  0  0
  2  3  1  0  0  0
  3  4  2  0  0  0
  4  5  1  0  0  0
  5  6  2  0  0  0
  4 15  1  0  0  0
 15 16  2  0  0  0
 16 17  1  0  0  0
 17 18  2  0  0  0
 18 19  1  0  0  0
 19 20  1  0  0  0
 19 21  2  0  0  0
 12  8  1  0  0  0
  6  1  1  0  0  0
 21 15  1  0  0  0
 14 10  1  0  0  0
M  END
> <minimizedAffinity>
5.82731

> <CNNscore>
0.4157947302

> <CNNaffinity>
6.9590010643

> <CNN_VS>
2.8935160637

> <CNNaffinity_variance>
2.1982493401

$$$$
[H]c1nc(N2C([H])([H])[C@@]3([H])N(C([H])([H])[H])C([H])([H])[C@@]2([H])C3([H])[H])c([H])nc1-c1c([H])c([H])c([H])c(F)c1[H]


 21 24  0  0  0  0  0  0  0  0999 V2000
    7.9848   48.6475  130.5856 C   0  0  0  0  0  0  0  0  0  0  0  0
    7.5137   47.3321  130.0400 C   0  0  0  0  0  0  0  0  0  0  0  0
    7.9249   46.0530  130.7068 N   0  0  0  0  0  0  0  0  0  0  0  0
    8.8073   46.0893  131.9193 C   0  0  0  0  0  0  0  0  0  0  0  0
    9.2784   47.4047  132.4650 C   0  0  0  0  0  0  0  0  0  0  0  0
    8.8672   48.6838  131.7981 N   0  0  0  0  0  0  0  0  0  0  0  0
    6.4425   53.7643  127.4279 C   0  0  0  0  0  0  0  0  0  0  0  0
    6.8537   52.4851  128.0948 N   0  0  0  0  0  0  0  0  0  0  0  0
    7.5005   51.3096  127.4242 C   0  0  0  0  0  0  0  0  0  0  0  0
    7.7369   50.2548  128.4642 C   0  0  0  0  0  0  0  0  0  0  0  0
    7.2362   50.7786  129.7776 C   0  0  0  0  0  0  0  0  0  0  0  0
    6.6904   52.1570  129.5493 C   0  0  0  0  0  0  0  0  0  0  0  0
    6.9268   51.1023  130.5894 C   0  0  0  0  0  0  0  0  0  0  0  0
    7.5736   49.9267  129.9188 N   0  0  0  0  0  0  0  0  0  0  0  0
    9.2185   44.8101  132.5862 C   0  0  0  0  0  0  0  0  0  0  0  0
    8.3551   43.5896  132.4646 C   0  0  0  0  0  0  0  0  0  0  0  0
    8.7663   42.3105  133.1314 C   0  0  0  0  0  0  0  0  0  0  0  0
   10.0410   42.2518  133.9199 C   0  0  0  0  0  0  0  0  0  0  0  0
   10.9045   43.4724  134.0415 C   0  0  0  0  0  0  0  0  0  0  0  0
   12.1792   43.4137  134.8300 F   0  0  0  0  0  0  0  0  0  0  0  0
   10.4932   44.7515  133.3746 C   0  0  0  0  0  0  0  0  0  0  0  0
  7  8  1  0  0  0
  8  9  1  0  0  0
  9 10  1  0  0  0
 10 11  1  0  0  0
 11 12  1  0  0  0
 12 13  1  0  0  0
 13 14  1  0  0  0
 14  1  1  0  0  0
  1  2  2  0  0  0
  2  3  1  0  0  0
  3  4  2  0  0  0
  4  5  1  0  0  0
  5  6  2  0  0  0
  4 15  1  0  0  0
 15 16  2  0  0  0
 16 17  1  0  0  0
 17 18  2  0  0  0
 18 19  1  0  0  0
 19 20  1  0  0  0
 19 21  2  0  0  0
 12  8  1  0  0  0
  6  1  1  0  0  0
 21 15  1  0  0  0
 14 10  1  0  0  0
M  END
> <minimizedAffinity>
5.09598

> <CNNscore>
0.4057886899

> <CNNaffinity>
6.6131935120

> <CNN_VS>
2.6835591793

> <CNNaffinity_variance>
1.2800836563

$$$$
[H]c1nc(N2C([H])([H])[C@@]3([H])N(C([H])([H])[H])C([H])([H])[C@@]2([H])C3([H])[H])c([H])nc1-c1c([H])c([H])c([H])c(F)c1[H]


 21 24  0  0  0  0  0  0  0  0999 V2000
    7.9929   48.6784  130.5418 C   0  0  0  0  0  0  0  0  0  0  0  0
    9.0467   48.6928  131.6092 C   0  0  0  0  0  0  0  0  0  0  0  0
    9.4594   47.4125  132.2729 N   0  0  0  0  0  0  0  0  0  0  0  0
    8.8184   46.1179  131.8693 C   0  0  0  0  0  0  0  0  0  0  0  0
    7.7645   46.1035  130.8019 C   0  0  0  0  0  0  0  0  0  0  0  0
    7.3518   47.3838  130.1382 N   0  0  0  0  0  0  0  0  0  0  0  0
    6.4454   53.8014  127.3968 C   0  0  0  0  0  0  0  0  0  0  0  0
    6.8582   52.5212  128.0605 N   0  0  0  0  0  0  0  0  0  0  0  0
    7.5086   51.3490  127.3876 C   0  0  0  0  0  0  0  0  0  0  0  0
    7.7454   50.2916  128.4249 C   0  0  0  0  0  0  0  0  0  0  0  0
    7.2413   50.8103  129.7390 C   0  0  0  0  0  0  0  0  0  0  0  0
    6.6930   52.1883  129.5138 C   0  0  0  0  0  0  0  0  0  0  0  0
    6.9297   51.1309  130.5512 C   0  0  0  0  0  0  0  0  0  0  0  0
    7.5802   49.9587  129.8781 N   0  0  0  0  0  0  0  0  0  0  0  0
    9.2311   44.8376  132.5330 C   0  0  0  0  0  0  0  0  0  0  0  0
    8.3859   43.6077  132.3813 C   0  0  0  0  0  0  0  0  0  0  0  0
    8.7986   42.3274  133.0450 C   0  0  0  0  0  0  0  0  0  0  0  0
   10.0566   42.2770  133.8604 C   0  0  0  0  0  0  0  0  0  0  0  0
   10.9018   43.5069  134.0122 C   0  0  0  0  0  0  0  0  0  0  0  0
   12.1598   43.4564  134.8276 F   0  0  0  0  0  0  0  0  0  0  0  0
   10.4891   44.7872  133.3484 C   0  0  0  0  0  0  0  0  0  0  0  0
  7  8  1  0  0  0
  8  9  1  0  0  0
  9 10  1  0  0  0
 10 11  1  0  0  0
 11 12  1  0  0  0
 12 13  1  0  0  0
 13 14  1  0  0  0
 14  1  1  0  0  0
  1  2  2  0  0  0
  2  3  1  0  0  0
  3  4  2  0  0  0
  4  5  1  0  0  0
  5  6  2  0  0  0
  4 15  1  0  0  0
 15 16  2  0  0  0
 16 17  1  0  0  0
 17 18  2  0  0  0
 18 19  1  0  0  0
 19 20  1  0  0  0
 19 21  2  0  0  0
 12  8  1  0  0  0
  6  1  1  0  0  0
 21 15  1  0  0  0
 14 10  1  0  0  0
M  END
> <minimizedAffinity>
5.07797

> <CNNscore>
0.3826867342

> <CNNaffinity>
6.6179146767

> <CNN_VS>
2.5325882435

> <CNNaffinity_variance>
1.3132708073

$$$$
[H]c1nc(N2C([H])([H])[C@@]3([H])N(C([H])([H])[H])C([H])([H])[C@@]2([H])C3([H])[H])c([H])nc1-c1c([H])c([H])c([H])c(F)c1[H]


 21 24  0  0  0  0  0  0  0  0999 V2000
    9.0058   45.3952  130.6325 C   0  0  0  0  0  0  0  0  0  0  0  0
    9.8452   46.6274  130.7968 C   0  0  0  0  0  0  0  0  0  0  0  0
    9.2517   47.9797  130.5343 N   0  0  0  0  0  0  0  0  0  0  0  0
    7.8187   48.0998  130.1076 C   0  0  0  0  0  0  0  0  0  0  0  0
    6.9792   46.8676  129.9434 C   0  0  0  0  0  0  0  0  0  0  0  0
    7.5728   45.5153  130.2058 N   0  0  0  0  0  0  0  0  0  0  0  0
   11.6389   39.9719  132.1110 C   0  0  0  0  0  0  0  0  0  0  0  0
   11.0454   41.3242  131.8485 N   0  0  0  0  0  0  0  0  0  0  0  0
   11.1774   42.5311  132.7294 C   0  0  0  0  0  0  0  0  0  0  0  0
   10.4292   43.6599  132.0844 C   0  0  0  0  0  0  0  0  0  0  0  0
    9.8347   43.1507  130.8049 C   0  0  0  0  0  0  0  0  0  0  0  0
   10.2155   41.7072  130.6591 C   0  0  0  0  0  0  0  0  0  0  0  0
    9.4673   42.8359  130.0140 C   0  0  0  0  0  0  0  0  0  0  0  0
    9.5994   44.0429  130.8950 N   0  0  0  0  0  0  0  0  0  0  0  0
    7.2251   49.4522  129.8452 C   0  0  0  0  0  0  0  0  0  0  0  0
    6.1675   49.9972  130.7586 C   0  0  0  0  0  0  0  0  0  0  0  0
    5.5740   51.3495  130.4962 C   0  0  0  0  0  0  0  0  0  0  0  0
    6.0380   52.1569  129.3203 C   0  0  0  0  0  0  0  0  0  0  0  0
    7.0957   51.6119  128.4067 C   0  0  0  0  0  0  0  0  0  0  0  0
    7.5597   52.4192  127.2308 F   0  0  0  0  0  0  0  0  0  0  0  0
    7.6892   50.2595  128.6692 C   0  0  0  0  0  0  0  0  0  0  0  0
  7  8  1  0  0  0
  8  9  1  0  0  0
  9 10  1  0  0  0
 10 11  1  0  0  0
 11 12  1  0  0  0
 12 13  1  0  0  0
 13 14  1  0  0  0
 14  1  1  0  0  0
  1  2  2  0  0  0
  2  3  1  0  0  0
  3  4  2  0  0  0
  4  5  1  0  0  0
  5  6  2  0  0  0
  4 15  1  0  0  0
 15 16  2  0  0  0
 16 17  1  0  0  0
 17 18  2  0  0  0
 18 19  1  0  0  0
 19 20  1  0  0  0
 19 21  2  0  0  0
 12  8  1  0  0  0
  6  1  1  0  0  0
 21 15  1  0  0  0
 14 10  1  0  0  0
M  END
> <minimizedAffinity>
6.01390

> <CNNscore>
0.1746955514

> <CNNaffinity>
6.2990918159

> <CNN_VS>
1.1004233360

> <CNNaffinity_variance>
0.6736044884

$$$$
[H]OC(=O)[C@@]([H])(N([H])C(=O)[C@@]([H])(N([H])C(=O)c1c([H])c(OC([H])([H])[H])c(OC([H])([H])[H])c(OC([H])([H])[H])c1[H])C([H])([H])c1c([H])c([H])c([H])c([H])c1[H])C([H])([H])c1c([H])c([H])c(O[H])c([H])c1[H]


 42 44  0  0  0  0  0  0  0  0999 V2000
   10.3721   48.0964  129.8375 C   0  0  0  0  0  0  0  0  0  0  0  0
   10.6493   47.2815  132.1891 C   0  0  0  0  0  0  0  0  0  0  0  0
   10.6143   48.4516  132.6310 O   0  0  0  0  0  0  0  0  0  0  0  0
   10.5311   47.0319  130.8034 N   0  0  0  0  0  0  0  0  0  0  0  0
   10.5529   46.0460  130.4398 H   0  0  0  0  0  0  0  0  0  0  0  0
   10.4833   45.1773  135.2683 C   0  0  0  0  0  0  0  0  0  0  0  0
   10.3138   46.2510  134.3864 C   0  0  0  0  0  0  0  0  0  0  0  0
   10.8110   46.1780  133.1052 C   0  0  0  0  0  0  0  0  0  0  0  0
   11.4826   45.0367  132.6851 C   0  0  0  0  0  0  0  0  0  0  0  0
   11.6579   43.9753  133.5351 C   0  0  0  0  0  0  0  0  0  0  0  0
   11.1552   44.0649  134.8110 C   0  0  0  0  0  0  0  0  0  0  0  0
    9.5865   46.4867  137.0686 C   0  0  0  0  0  0  0  0  0  0  0  0
    9.9906   45.2298  136.5632 O   0  0  0  0  0  0  0  0  0  0  0  0
   12.3250   42.8253  133.1388 O   0  0  0  0  0  0  0  0  0  0  0  0
   11.8143   42.0523  132.0916 C   0  0  0  0  0  0  0  0  0  0  0  0
   11.3364   42.9866  135.6667 O   0  0  0  0  0  0  0  0  0  0  0  0
   11.8492   43.2272  136.9744 C   0  0  0  0  0  0  0  0  0  0  0  0
    8.9840   48.5955  129.8242 C   0  0  0  0  0  0  0  0  0  0  0  0
    8.5678   49.3405  130.7260 O   0  0  0  0  0  0  0  0  0  0  0  0
    8.1168   48.2258  128.7791 N   0  0  0  0  0  0  0  0  0  0  0  0
    8.4339   47.6135  128.0253 H   0  0  0  0  0  0  0  0  0  0  0  0
    6.7277   48.6816  128.6972 C   0  0  0  0  0  0  0  0  0  0  0  0
    6.5693   50.0369  129.1772 C   0  0  0  0  0  0  0  0  0  0  0  0
    7.2272   51.0984  128.6148 O   0  0  0  0  0  0  0  0  0  0  0  0
    5.8050   50.2804  130.1524 O   0  0  0  0  0  0  0  0  0  0  0  0
    6.8376   52.0252  128.5906 H   0  0  0  0  0  0  0  0  0  0  0  0
    5.8794   47.6754  129.4185 C   0  0  0  0  0  0  0  0  0  0  0  0
    6.5926   46.6044  130.1269 C   0  0  0  0  0  0  0  0  0  0  0  0
    6.6514   46.5205  131.4908 C   0  0  0  0  0  0  0  0  0  0  0  0
    7.3312   45.5022  132.0935 C   0  0  0  0  0  0  0  0  0  0  0  0
    7.9892   44.5124  131.3923 C   0  0  0  0  0  0  0  0  0  0  0  0
    8.6670   43.4973  132.0157 O   0  0  0  0  0  0  0  0  0  0  0  0
    7.9166   44.6169  130.0111 C   0  0  0  0  0  0  0  0  0  0  0  0
    7.2432   45.6256  129.3951 C   0  0  0  0  0  0  0  0  0  0  0  0
    9.1428   42.7817  131.5170 H   0  0  0  0  0  0  0  0  0  0  0  0
   10.9071   47.7540  128.4631 C   0  0  0  0  0  0  0  0  0  0  0  0
   10.9951   46.2902  128.3123 C   0  0  0  0  0  0  0  0  0  0  0  0
   10.1775   45.6152  127.4456 C   0  0  0  0  0  0  0  0  0  0  0  0
   10.2858   44.2270  127.3428 C   0  0  0  0  0  0  0  0  0  0  0  0
   11.1986   43.5561  128.1002 C   0  0  0  0  0  0  0  0  0  0  0  0
   12.0269   44.2287  128.9762 C   0  0  0  0  0  0  0  0  0  0  0  0
   11.9092   45.6014  129.0681 C   0  0  0  0  0  0  0  0  0  0  0  0
 12 13  1  0  0  0
 13  6  1  0  0  0
  6  7  2  0  0  0
  7  8  1  0  0  0
  8  9  2  0  0  0
  9 10  1  0  0  0
 10 14  1  0  0  0
 14 15  1  0  0  0
 10 11  2  0  0  0
 11 16  1  0  0  0
 16 17  1  0  0  0
  8  2  1  0  0  0
  2  3  2  0  0  0
  2  4  1  0  0  0
  4  1  1  0  0  0
  1 36  1  0  0  0
 36 37  1  0  0  0
 37 38  2  0  0  0
 38 39  1  0  0  0
 39 40  2  0  0  0
 40 41  1  0  0  0
 41 42  2  0  0  0
  1 18  1  0  0  0
 18 19  2  0  0  0
 18 20  1  0  0  0
 20 22  1  0  0  0
 22 27  1  0  0  0
 27 28  1  0  0  0
 28 29  2  0  0  0
 29 30  1  0  0  0
 30 31  2  0  0  0
 31 32  1  0  0  0
 31 33  1  0  0  0
 33 34  2  0  0  0
 22 23  1  0  0  0
 23 24  1  0  0  0
 23 25  2  0  0  0
 11  6  1  0  0  0
 42 37  1  0  0  0
 34 28  1  0  0  0
  4  5  1  0  0  0
 20 21  1  0  0  0
 32 35  1  0  0  0
 24 26  1  0  0  0
M  END
> <minimizedAffinity>
3.78176

> <CNNscore>
0.3258908689

> <CNNaffinity>
7.0882482529

> <CNN_VS>
2.3099954128

> <CNNaffinity_variance>
0.1668294966

$$$$
[H]OC(=O)[C@@]([H])(N([H])C(=O)[C@@]([H])(N([H])C(=O)c1c([H])c(OC([H])([H])[H])c(OC([H])([H])[H])c(OC([H])([H])[H])c1[H])C([H])([H])c1c([H])c([H])c([H])c([H])c1[H])C([H])([H])c1c([H])c([H])c(O[H])c([H])c1[H]


 42 44  0  0  0  0  0  0  0  0999 V2000
   10.3942   48.0905  129.7929 C   0  0  0  0  0  0  0  0  0  0  0  0
   10.6899   47.2658  132.1388 C   0  0  0  0  0  0  0  0  0  0  0  0
   10.6718   48.4348  132.5844 O   0  0  0  0  0  0  0  0  0  0  0  0
   10.5534   47.0216  130.7538 N   0  0  0  0  0  0  0  0  0  0  0  0
   10.5610   46.0366  130.3871 H   0  0  0  0  0  0  0  0  0  0  0  0
   11.6390   43.9386  133.5409 C   0  0  0  0  0  0  0  0  0  0  0  0
   11.4955   45.0094  132.6507 C   0  0  0  0  0  0  0  0  0  0  0  0
   10.8509   46.1580  133.0497 C   0  0  0  0  0  0  0  0  0  0  0  0
   10.3412   46.2561  134.3384 C   0  0  0  0  0  0  0  0  0  0  0  0
   10.4726   45.2176  135.2238 C   0  0  0  0  0  0  0  0  0  0  0  0
   11.1189   44.0779  134.8089 C   0  0  0  0  0  0  0  0  0  0  0  0
   11.7304   42.0249  132.0954 C   0  0  0  0  0  0  0  0  0  0  0  0
   12.2847   42.7724  133.1597 O   0  0  0  0  0  0  0  0  0  0  0  0
    9.9721   45.2918  136.5154 O   0  0  0  0  0  0  0  0  0  0  0  0
    9.4884   46.5094  137.0039 C   0  0  0  0  0  0  0  0  0  0  0  0
   11.2483   43.0298  135.7104 O   0  0  0  0  0  0  0  0  0  0  0  0
   11.9985   43.2398  136.9036 C   0  0  0  0  0  0  0  0  0  0  0  0
    9.0123   48.6067  129.8000 C   0  0  0  0  0  0  0  0  0  0  0  0
    8.6211   49.3635  130.7031 O   0  0  0  0  0  0  0  0  0  0  0  0
    8.1223   48.2399  128.7731 N   0  0  0  0  0  0  0  0  0  0  0  0
    8.4186   47.6181  128.0187 H   0  0  0  0  0  0  0  0  0  0  0  0
    6.7376   48.7122  128.7120 C   0  0  0  0  0  0  0  0  0  0  0  0
    6.5996   50.0625  129.2121 C   0  0  0  0  0  0  0  0  0  0  0  0
    7.2073   51.1344  128.6143 O   0  0  0  0  0  0  0  0  0  0  0  0
    5.9014   50.2913  130.2391 O   0  0  0  0  0  0  0  0  0  0  0  0
    6.8081   52.0574  128.6239 H   0  0  0  0  0  0  0  0  0  0  0  0
    5.8856   47.7056  129.4284 C   0  0  0  0  0  0  0  0  0  0  0  0
    6.5948   46.6282  130.1311 C   0  0  0  0  0  0  0  0  0  0  0  0
    6.6679   46.5465  131.4944 C   0  0  0  0  0  0  0  0  0  0  0  0
    7.3430   45.5219  132.0917 C   0  0  0  0  0  0  0  0  0  0  0  0
    7.9821   44.5234  131.3853 C   0  0  0  0  0  0  0  0  0  0  0  0
    8.6556   43.5020  132.0033 O   0  0  0  0  0  0  0  0  0  0  0  0
    7.8953   44.6259  130.0048 C   0  0  0  0  0  0  0  0  0  0  0  0
    7.2262   45.6407  129.3942 C   0  0  0  0  0  0  0  0  0  0  0  0
    9.1177   42.7802  131.5008 H   0  0  0  0  0  0  0  0  0  0  0  0
   10.9059   47.7454  128.4103 C   0  0  0  0  0  0  0  0  0  0  0  0
   10.9697   46.2810  128.2531 C   0  0  0  0  0  0  0  0  0  0  0  0
   10.1504   45.6248  127.3736 C   0  0  0  0  0  0  0  0  0  0  0  0
   10.2353   44.2354  127.2650 C   0  0  0  0  0  0  0  0  0  0  0  0
   11.1273   43.5448  128.0295 C   0  0  0  0  0  0  0  0  0  0  0  0
   11.9571   44.1983  128.9184 C   0  0  0  0  0  0  0  0  0  0  0  0
   11.8627   45.5724  129.0159 C   0  0  0  0  0  0  0  0  0  0  0  0
 12 13  1  0  0  0
 13  6  1  0  0  0
  6  7  2  0  0  0
  7  8  1  0  0  0
  8  9  2  0  0  0
  9 10  1  0  0  0
 10 14  1  0  0  0
 14 15  1  0  0  0
 10 11  2  0  0  0
 11 16  1  0  0  0
 16 17  1  0  0  0
  8  2  1  0  0  0
  2  3  2  0  0  0
  2  4  1  0  0  0
  4  1  1  0  0  0
  1 36  1  0  0  0
 36 37  1  0  0  0
 37 38  2  0  0  0
 38 39  1  0  0  0
 39 40  2  0  0  0
 40 41  1  0  0  0
 41 42  2  0  0  0
  1 18  1  0  0  0
 18 19  2  0  0  0
 18 20  1  0  0  0
 20 22  1  0  0  0
 22 27  1  0  0  0
 27 28  1  0  0  0
 28 29  2  0  0  0
 29 30  1  0  0  0
 30 31  2  0  0  0
 31 32  1  0  0  0
 31 33  1  0  0  0
 33 34  2  0  0  0
 22 23  1  0  0  0
 23 24  1  0  0  0
 23 25  2  0  0  0
 11  6  1  0  0  0
 42 37  1  0  0  0
 34 28  1  0  0  0
  4  5  1  0  0  0
 20 21  1  0  0  0
 32 35  1  0  0  0
 24 26  1  0  0  0
M  END
> <minimizedAffinity>
4.00001

> <CNNscore>
0.3254208565

> <CNNaffinity>
7.1009035110

> <CNN_VS>
2.3107821941

> <CNNaffinity_variance>
0.1692852974

$$$$
[H]OC(=O)[C@@]([H])(N([H])C(=O)[C@@]([H])(N([H])C(=O)c1c([H])c(OC([H])([H])[H])c(OC([H])([H])[H])c(OC([H])([H])[H])c1[H])C([H])([H])c1c([H])c([H])c([H])c([H])c1[H])C([H])([H])c1c([H])c([H])c(O[H])c([H])c1[H]


 42 44  0  0  0  0  0  0  0  0999 V2000
   11.7882   47.0913  132.9484 C   0  0  0  0  0  0  0  0  0  0  0  0
    9.3875   47.6369  132.4904 C   0  0  0  0  0  0  0  0  0  0  0  0
    9.0651   47.3418  133.6628 O   0  0  0  0  0  0  0  0  0  0  0  0
   10.7319   47.5374  132.0672 N   0  0  0  0  0  0  0  0  0  0  0  0
   10.9972   47.7949  131.0833 H   0  0  0  0  0  0  0  0  0  0  0  0
    6.5032   47.6371  130.1202 C   0  0  0  0  0  0  0  0  0  0  0  0
    7.4758   47.1931  131.0238 C   0  0  0  0  0  0  0  0  0  0  0  0
    8.3753   48.0838  131.5637 C   0  0  0  0  0  0  0  0  0  0  0  0
    8.3188   49.4266  131.2121 C   0  0  0  0  0  0  0  0  0  0  0  0
    7.3730   49.8795  130.3288 C   0  0  0  0  0  0  0  0  0  0  0  0
    6.4826   48.9766  129.7991 C   0  0  0  0  0  0  0  0  0  0  0  0
    5.3916   46.7998  128.1649 C   0  0  0  0  0  0  0  0  0  0  0  0
    5.5875   46.7569  129.5643 O   0  0  0  0  0  0  0  0  0  0  0  0
    7.2967   51.2153  129.9623 O   0  0  0  0  0  0  0  0  0  0  0  0
    8.0720   52.1651  130.6344 C   0  0  0  0  0  0  0  0  0  0  0  0
    5.5275   49.4417  128.9050 O   0  0  0  0  0  0  0  0  0  0  0  0
    4.2907   49.9318  129.4157 C   0  0  0  0  0  0  0  0  0  0  0  0
   12.3442   45.8016  132.4972 C   0  0  0  0  0  0  0  0  0  0  0  0
   12.9657   45.0677  133.2824 O   0  0  0  0  0  0  0  0  0  0  0  0
   12.1709   45.3932  131.1614 N   0  0  0  0  0  0  0  0  0  0  0  0
   11.6642   45.9785  130.4948 H   0  0  0  0  0  0  0  0  0  0  0  0
   12.6923   44.1278  130.6409 C   0  0  0  0  0  0  0  0  0  0  0  0
   13.0960   44.2330  129.2558 C   0  0  0  0  0  0  0  0  0  0  0  0
   12.1931   44.3517  128.2329 O   0  0  0  0  0  0  0  0  0  0  0  0
   14.3205   44.2138  128.9478 O   0  0  0  0  0  0  0  0  0  0  0  0
   12.3964   44.8569  127.3875 H   0  0  0  0  0  0  0  0  0  0  0  0
   11.6553   43.0734  130.8962 C   0  0  0  0  0  0  0  0  0  0  0  0
   10.4774   43.4864  131.6705 C   0  0  0  0  0  0  0  0  0  0  0  0
    9.3556   44.0192  131.0976 C   0  0  0  0  0  0  0  0  0  0  0  0
    8.2914   44.3864  131.8691 C   0  0  0  0  0  0  0  0  0  0  0  0
    8.2700   44.2511  133.2423 C   0  0  0  0  0  0  0  0  0  0  0  0
    7.1914   44.6258  134.0005 O   0  0  0  0  0  0  0  0  0  0  0  0
    9.4174   43.7088  133.8020 C   0  0  0  0  0  0  0  0  0  0  0  0
   10.4864   43.3379  133.0469 C   0  0  0  0  0  0  0  0  0  0  0  0
    7.1694   44.5310  134.9893 H   0  0  0  0  0  0  0  0  0  0  0  0
   11.4045   47.1076  134.4130 C   0  0  0  0  0  0  0  0  0  0  0  0
   12.5199   47.6424  135.2150 C   0  0  0  0  0  0  0  0  0  0  0  0
   13.7405   47.0219  135.2365 C   0  0  0  0  0  0  0  0  0  0  0  0
   14.7660   47.5553  136.0195 C   0  0  0  0  0  0  0  0  0  0  0  0
   14.5481   48.6831  136.7528 C   0  0  0  0  0  0  0  0  0  0  0  0
   13.3208   49.3151  136.7368 C   0  0  0  0  0  0  0  0  0  0  0  0
   12.3154   48.7769  135.9583 C   0  0  0  0  0  0  0  0  0  0  0  0
 12 13  1  0  0  0
 13  6  1  0  0  0
  6  7  2  0  0  0
  7  8  1  0  0  0
  8  9  2  0  0  0
  9 10  1  0  0  0
 10 14  1  0  0  0
 14 15  1  0  0  0
 10 11  2  0  0  0
 11 16  1  0  0  0
 16 17  1  0  0  0
  8  2  1  0  0  0
  2  3  2  0  0  0
  2  4  1  0  0  0
  4  1  1  0  0  0
  1 36  1  0  0  0
 36 37  1  0  0  0
 37 38  2  0  0  0
 38 39  1  0  0  0
 39 40  2  0  0  0
 40 41  1  0  0  0
 41 42  2  0  0  0
  1 18  1  0  0  0
 18 19  2  0  0  0
 18 20  1  0  0  0
 20 22  1  0  0  0
 22 27  1  0  0  0
 27 28  1  0  0  0
 28 29  2  0  0  0
 29 30  1  0  0  0
 30 31  2  0  0  0
 31 32  1  0  0  0
 31 33  1  0  0  0
 33 34  2  0  0  0
 22 23  1  0  0  0
 23 24  1  0  0  0
 23 25  2  0  0  0
 11  6  1  0  0  0
 42 37  1  0  0  0
 34 28  1  0  0  0
  4  5  1  0  0  0
 20 21  1  0  0  0
 32 35  1  0  0  0
 24 26  1  0  0  0
M  END
> <minimizedAffinity>
12.85480

> <CNNscore>
0.3224378228

> <CNNaffinity>
7.1001067162

> <CNN_VS>
2.2893428802

> <CNNaffinity_variance>
1.1592029333

$$$$
[H]OC(=O)[C@@]([H])(N([H])C(=O)[C@@]([H])(N([H])C(=O)c1c([H])c(OC([H])([H])[H])c(OC([H])([H])[H])c(OC([H])([H])[H])c1[H])C([H])([H])c1c([H])c([H])c([H])c([H])c1[H])C([H])([H])c1c([H])c([H])c(O[H])c([H])c1[H]


 42 44  0  0  0  0  0  0  0  0999 V2000
    8.5591   47.3688  129.5808 C   0  0  0  0  0  0  0  0  0  0  0  0
   10.2013   46.2167  131.0798 C   0  0  0  0  0  0  0  0  0  0  0  0
   11.0040   46.0624  130.1325 O   0  0  0  0  0  0  0  0  0  0  0  0
    8.9621   46.8639  130.8747 N   0  0  0  0  0  0  0  0  0  0  0  0
    8.2961   46.9977  131.6767 H   0  0  0  0  0  0  0  0  0  0  0  0
   11.8874   44.3483  133.8371 C   0  0  0  0  0  0  0  0  0  0  0  0
   11.5665   44.8197  132.5587 C   0  0  0  0  0  0  0  0  0  0  0  0
   10.5467   45.7290  132.3935 C   0  0  0  0  0  0  0  0  0  0  0  0
    9.8338   46.1808  133.4970 C   0  0  0  0  0  0  0  0  0  0  0  0
   10.1343   45.7302  134.7566 C   0  0  0  0  0  0  0  0  0  0  0  0
   11.1555   44.8223  134.9036 C   0  0  0  0  0  0  0  0  0  0  0  0
   13.5360   42.8902  132.8798 C   0  0  0  0  0  0  0  0  0  0  0  0
   12.9108   43.4321  134.0262 O   0  0  0  0  0  0  0  0  0  0  0  0
    9.4369   46.1664  135.8736 O   0  0  0  0  0  0  0  0  0  0  0  0
    8.5847   47.2704  135.7728 C   0  0  0  0  0  0  0  0  0  0  0  0
   11.4544   44.3698  136.1818 O   0  0  0  0  0  0  0  0  0  0  0  0
   10.9309   43.1137  136.6048 C   0  0  0  0  0  0  0  0  0  0  0  0
    9.2043   46.6100  128.4926 C   0  0  0  0  0  0  0  0  0  0  0  0
    9.8360   47.1946  127.5979 O   0  0  0  0  0  0  0  0  0  0  0  0
    9.1058   45.2063  128.4635 N   0  0  0  0  0  0  0  0  0  0  0  0
    8.5914   44.7008  129.1871 H   0  0  0  0  0  0  0  0  0  0  0  0
    9.7196   44.3857  127.4176 C   0  0  0  0  0  0  0  0  0  0  0  0
    8.8258   43.3538  126.9393 C   0  0  0  0  0  0  0  0  0  0  0  0
    7.9375   43.5648  125.9185 O   0  0  0  0  0  0  0  0  0  0  0  0
    8.8403   42.2064  127.4661 O   0  0  0  0  0  0  0  0  0  0  0  0
    7.6570   42.8353  125.2857 H   0  0  0  0  0  0  0  0  0  0  0  0
   11.0198   43.8654  127.9572 C   0  0  0  0  0  0  0  0  0  0  0  0
   11.7608   42.9338  127.0966 C   0  0  0  0  0  0  0  0  0  0  0  0
   13.0144   43.1958  126.6167 C   0  0  0  0  0  0  0  0  0  0  0  0
   13.6537   42.2917  125.8190 C   0  0  0  0  0  0  0  0  0  0  0  0
   13.0989   41.0834  125.4493 C   0  0  0  0  0  0  0  0  0  0  0  0
   13.7567   40.1879  124.6469 O   0  0  0  0  0  0  0  0  0  0  0  0
   11.8276   40.8384  125.9471 C   0  0  0  0  0  0  0  0  0  0  0  0
   11.1771   41.7292  126.7432 C   0  0  0  0  0  0  0  0  0  0  0  0
   13.3631   39.3164  124.3771 H   0  0  0  0  0  0  0  0  0  0  0  0
    8.7036   48.8696  129.4428 C   0  0  0  0  0  0  0  0  0  0  0  0
    9.1804   49.4439  130.7140 C   0  0  0  0  0  0  0  0  0  0  0  0
   10.2655   48.9221  131.3663 C   0  0  0  0  0  0  0  0  0  0  0  0
   10.6761   49.4891  132.5743 C   0  0  0  0  0  0  0  0  0  0  0  0
    9.9993   50.5517  133.0939 C   0  0  0  0  0  0  0  0  0  0  0  0
    8.9046   51.0841  132.4428 C   0  0  0  0  0  0  0  0  0  0  0  0
    8.5092   50.5138  131.2491 C   0  0  0  0  0  0  0  0  0  0  0  0
 12 13  1  0  0  0
 13  6  1  0  0  0
  6  7  2  0  0  0
  7  8  1  0  0  0
  8  9  2  0  0  0
  9 10  1  0  0  0
 10 14  1  0  0  0
 14 15  1  0  0  0
 10 11  2  0  0  0
 11 16  1  0  0  0
 16 17  1  0  0  0
  8  2  1  0  0  0
  2  3  2  0  0  0
  2  4  1  0  0  0
  4  1  1  0  0  0
  1 36  1  0  0  0
 36 37  1  0  0  0
 37 38  2  0  0  0
 38 39  1  0  0  0
 39 40  2  0  0  0
 40 41  1  0  0  0
 41 42  2  0  0  0
  1 18  1  0  0  0
 18 19  2  0  0  0
 18 20  1  0  0  0
 20 22  1  0  0  0
 22 27  1  0  0  0
 27 28  1  0  0  0
 28 29  2  0  0  0
 29 30  1  0  0  0
 30 31  2  0  0  0
 31 32  1  0  0  0
 31 33  1  0  0  0
 33 34  2  0  0  0
 22 23  1  0  0  0
 23 24  1  0  0  0
 23 25  2  0  0  0
 11  6  1  0  0  0
 42 37  1  0  0  0
 34 28  1  0  0  0
  4  5  1  0  0  0
 20 21  1  0  0  0
 32 35  1  0  0  0
 24 26  1  0  0  0
M  END
> <minimizedAffinity>
29.01853

> <CNNscore>
0.2995812893

> <CNNaffinity>
6.9402494431

> <CNN_VS>
2.0791687965

> <CNNaffinity_variance>
1.3080853224

$$$$
[H]OC(=O)[C@@]([H])(N([H])C(=O)[C@@]([H])(N([H])C(=O)c1c([H])c(OC([H])([H])[H])c(OC([H])([H])[H])c(OC([H])([H])[H])c1[H])C([H])([H])c1c([H])c([H])c([H])c([H])c1[H])C([H])([H])c1c([H])c([H])c(O[H])c([H])c1[H]


 42 44  0  0  0  0  0  0  0  0999 V2000
    8.2805   47.1580  129.1069 C   0  0  0  0  0  0  0  0  0  0  0  0
    9.6537   46.9567  131.1913 C   0  0  0  0  0  0  0  0  0  0  0  0
   10.7041   47.2095  130.5602 O   0  0  0  0  0  0  0  0  0  0  0  0
    8.4070   46.9178  130.5274 N   0  0  0  0  0  0  0  0  0  0  0  0
    7.5275   46.7132  131.0652 H   0  0  0  0  0  0  0  0  0  0  0  0
   10.7786   45.6923  134.5189 C   0  0  0  0  0  0  0  0  0  0  0  0
   10.7306   45.9370  133.1415 C   0  0  0  0  0  0  0  0  0  0  0  0
    9.7183   46.7036  132.6108 C   0  0  0  0  0  0  0  0  0  0  0  0
    8.7416   47.2362  133.4428 C   0  0  0  0  0  0  0  0  0  0  0  0
    8.7725   47.0071  134.7943 C   0  0  0  0  0  0  0  0  0  0  0  0
    9.7903   46.2393  135.3075 C   0  0  0  0  0  0  0  0  0  0  0  0
   12.9170   44.6307  134.2735 C   0  0  0  0  0  0  0  0  0  0  0  0
   11.7893   44.9228  135.0745 O   0  0  0  0  0  0  0  0  0  0  0  0
    7.8087   47.5278  135.6452 O   0  0  0  0  0  0  0  0  0  0  0  0
    7.7106   48.9117  135.8192 C   0  0  0  0  0  0  0  0  0  0  0  0
    9.8157   46.0109  136.6769 O   0  0  0  0  0  0  0  0  0  0  0  0
   10.2443   44.7376  137.1521 C   0  0  0  0  0  0  0  0  0  0  0  0
    9.2376   46.3345  128.3440 C   0  0  0  0  0  0  0  0  0  0  0  0
    9.7502   46.7617  127.2970 O   0  0  0  0  0  0  0  0  0  0  0  0
    9.5772   45.0484  128.8040 N   0  0  0  0  0  0  0  0  0  0  0  0
    9.1692   44.6728  129.6620 H   0  0  0  0  0  0  0  0  0  0  0  0
   10.5190   44.1739  128.1023 C   0  0  0  0  0  0  0  0  0  0  0  0
    9.8538   43.0660  127.4524 C   0  0  0  0  0  0  0  0  0  0  0  0
    8.6676   43.2098  126.7832 O   0  0  0  0  0  0  0  0  0  0  0  0
   10.3608   41.9101  127.4900 O   0  0  0  0  0  0  0  0  0  0  0  0
    8.4224   42.6442  125.9887 H   0  0  0  0  0  0  0  0  0  0  0  0
   11.5716   43.7604  129.0890 C   0  0  0  0  0  0  0  0  0  0  0  0
   11.0974   43.3242  130.4090 C   0  0  0  0  0  0  0  0  0  0  0  0
   11.9354   42.8848  131.3965 C   0  0  0  0  0  0  0  0  0  0  0  0
   11.4363   42.4903  132.6039 C   0  0  0  0  0  0  0  0  0  0  0  0
   10.0902   42.5054  132.9077 C   0  0  0  0  0  0  0  0  0  0  0  0
    9.6077   42.1051  134.1265 O   0  0  0  0  0  0  0  0  0  0  0  0
    9.2589   42.9545  131.8922 C   0  0  0  0  0  0  0  0  0  0  0  0
    9.7406   43.3511  130.6834 C   0  0  0  0  0  0  0  0  0  0  0  0
    8.6400   42.1136  134.3516 H   0  0  0  0  0  0  0  0  0  0  0  0
    8.3103   48.6252  128.7342 C   0  0  0  0  0  0  0  0  0  0  0  0
    7.1193   49.3025  129.2784 C   0  0  0  0  0  0  0  0  0  0  0  0
    7.2298   50.4559  130.0082 C   0  0  0  0  0  0  0  0  0  0  0  0
    6.0768   51.0582  130.5155 C   0  0  0  0  0  0  0  0  0  0  0  0
    4.8562   50.4988  130.2828 C   0  0  0  0  0  0  0  0  0  0  0  0
    4.7358   49.3363  129.5480 C   0  0  0  0  0  0  0  0  0  0  0  0
    5.8839   48.7510  129.0522 C   0  0  0  0  0  0  0  0  0  0  0  0
 12 13  1  0  0  0
 13  6  1  0  0  0
  6  7  2  0  0  0
  7  8  1  0  0  0
  8  9  2  0  0  0
  9 10  1  0  0  0
 10 14  1  0  0  0
 14 15  1  0  0  0
 10 11  2  0  0  0
 11 16  1  0  0  0
 16 17  1  0  0  0
  8  2  1  0  0  0
  2  3  2  0  0  0
  2  4  1  0  0  0
  4  1  1  0  0  0
  1 36  1  0  0  0
 36 37  1  0  0  0
 37 38  2  0  0  0
 38 39  1  0  0  0
 39 40  2  0  0  0
 40 41  1  0  0  0
 41 42  2  0  0  0
  1 18  1  0  0  0
 18 19  2  0  0  0
 18 20  1  0  0  0
 20 22  1  0  0  0
 22 27  1  0  0  0
 27 28  1  0  0  0
 28 29  2  0  0  0
 29 30  1  0  0  0
 30 31  2  0  0  0
 31 32  1  0  0  0
 31 33  1  0  0  0
 33 34  2  0  0  0
 22 23  1  0  0  0
 23 24  1  0  0  0
 23 25  2  0  0  0
 11  6  1  0  0  0
 42 37  1  0  0  0
 34 28  1  0  0  0
  4  5  1  0  0  0
 20 21  1  0  0  0
 32 35  1  0  0  0
 24 26  1  0  0  0
M  END
> <minimizedAffinity>
5.36671

> <CNNscore>
0.2760280967

> <CNNaffinity>
7.2534551620

> <CNN_VS>
2.0021574497

> <CNNaffinity_variance>
0.3207570910

$$$$
[H]OC(=O)[C@@]([H])(N([H])C(=O)[C@@]([H])(N([H])C(=O)c1c([H])c(OC([H])([H])[H])c(OC([H])([H])[H])c(OC([H])([H])[H])c1[H])C([H])([H])c1c([H])c([H])c([H])c([H])c1[H])C([H])([H])c1c([H])c([H])c(O[H])c([H])c1[H]


 42 44  0  0  0  0  0  0  0  0999 V2000
   12.2017   45.1594  132.8046 C   0  0  0  0  0  0  0  0  0  0  0  0
   11.0416   47.3786  132.8036 C   0  0  0  0  0  0  0  0  0  0  0  0
   11.5042   47.6551  133.9329 O   0  0  0  0  0  0  0  0  0  0  0  0
   11.3524   46.1493  132.1801 N   0  0  0  0  0  0  0  0  0  0  0  0
   10.9673   45.9270  131.2278 H   0  0  0  0  0  0  0  0  0  0  0  0
    9.2078   50.5177  131.9552 C   0  0  0  0  0  0  0  0  0  0  0  0
   10.0486   49.6100  132.6098 C   0  0  0  0  0  0  0  0  0  0  0  0
   10.1837   48.3260  132.1331 C   0  0  0  0  0  0  0  0  0  0  0  0
    9.4849   47.9289  131.0001 C   0  0  0  0  0  0  0  0  0  0  0  0
    8.6569   48.8045  130.3459 C   0  0  0  0  0  0  0  0  0  0  0  0
    8.5335   50.0827  130.8355 C   0  0  0  0  0  0  0  0  0  0  0  0
    9.6285   52.1445  133.6690 C   0  0  0  0  0  0  0  0  0  0  0  0
    9.0569   51.8158  132.4184 O   0  0  0  0  0  0  0  0  0  0  0  0
    7.9487   48.4314  129.2130 O   0  0  0  0  0  0  0  0  0  0  0  0
    6.6056   48.0592  129.3249 C   0  0  0  0  0  0  0  0  0  0  0  0
    7.6932   50.9642  130.1685 O   0  0  0  0  0  0  0  0  0  0  0  0
    6.2945   50.9142  130.4365 C   0  0  0  0  0  0  0  0  0  0  0  0
   12.6792   44.1733  131.8167 C   0  0  0  0  0  0  0  0  0  0  0  0
   12.7443   42.9670  132.1031 O   0  0  0  0  0  0  0  0  0  0  0  0
   13.0671   44.5998  130.5327 N   0  0  0  0  0  0  0  0  0  0  0  0
   13.0238   45.5865  130.2717 H   0  0  0  0  0  0  0  0  0  0  0  0
   13.5499   43.6811  129.4997 C   0  0  0  0  0  0  0  0  0  0  0  0
   14.9165   43.9609  129.1168 C   0  0  0  0  0  0  0  0  0  0  0  0
   15.8578   42.9760  128.9766 O   0  0  0  0  0  0  0  0  0  0  0  0
   15.2851   45.1491  128.9006 O   0  0  0  0  0  0  0  0  0  0  0  0
   16.6160   43.0417  128.3192 H   0  0  0  0  0  0  0  0  0  0  0  0
   12.5742   43.7302  128.3604 C   0  0  0  0  0  0  0  0  0  0  0  0
   11.2086   44.1630  128.6851 C   0  0  0  0  0  0  0  0  0  0  0  0
   10.7427   45.4228  128.4274 C   0  0  0  0  0  0  0  0  0  0  0  0
    9.4633   45.7683  128.7532 C   0  0  0  0  0  0  0  0  0  0  0  0
    8.5729   44.8982  129.3486 C   0  0  0  0  0  0  0  0  0  0  0  0
    7.2912   45.2638  129.6685 O   0  0  0  0  0  0  0  0  0  0  0  0
    9.0662   43.6266  129.6008 C   0  0  0  0  0  0  0  0  0  0  0  0
   10.3387   43.2667  129.2822 C   0  0  0  0  0  0  0  0  0  0  0  0
    6.6452   44.6424  130.0972 H   0  0  0  0  0  0  0  0  0  0  0  0
   11.5955   44.5333  134.0427 C   0  0  0  0  0  0  0  0  0  0  0  0
   10.1306   44.6970  134.0184 C   0  0  0  0  0  0  0  0  0  0  0  0
    9.3427   43.9213  133.2103 C   0  0  0  0  0  0  0  0  0  0  0  0
    7.9604   44.1179  133.2091 C   0  0  0  0  0  0  0  0  0  0  0  0
    7.4068   45.0738  134.0071 C   0  0  0  0  0  0  0  0  0  0  0  0
    8.1936   45.8599  134.8249 C   0  0  0  0  0  0  0  0  0  0  0  0
    9.5590   45.6552  134.8162 C   0  0  0  0  0  0  0  0  0  0  0  0
 12 13  1  0  0  0
 13  6  1  0  0  0
  6  7  2  0  0  0
  7  8  1  0  0  0
  8  9  2  0  0  0
  9 10  1  0  0  0
 10 14  1  0  0  0
 14 15  1  0  0  0
 10 11  2  0  0  0
 11 16  1  0  0  0
 16 17  1  0  0  0
  8  2  1  0  0  0
  2  3  2  0  0  0
  2  4  1  0  0  0
  4  1  1  0  0  0
  1 36  1  0  0  0
 36 37  1  0  0  0
 37 38  2  0  0  0
 38 39  1  0  0  0
 39 40  2  0  0  0
 40 41  1  0  0  0
 41 42  2  0  0  0
  1 18  1  0  0  0
 18 19  2  0  0  0
 18 20  1  0  0  0
 20 22  1  0  0  0
 22 27  1  0  0  0
 27 28  1  0  0  0
 28 29  2  0  0  0
 29 30  1  0  0  0
 30 31  2  0  0  0
 31 32  1  0  0  0
 31 33  1  0  0  0
 33 34  2  0  0  0
 22 23  1  0  0  0
 23 24  1  0  0  0
 23 25  2  0  0  0
 11  6  1  0  0  0
 42 37  1  0  0  0
 34 28  1  0  0  0
  4  5  1  0  0  0
 20 21  1  0  0  0
 32 35  1  0  0  0
 24 26  1  0  0  0
M  END
> <minimizedAffinity>
3.74686

> <CNNscore>
0.2586597800

> <CNNaffinity>
7.2277169228

> <CNN_VS>
1.8695197105

> <CNNaffinity_variance>
0.2144124061

$$$$
[H]OC(=O)[C@@]([H])(N([H])C(=O)[C@@]([H])(N([H])C(=O)c1c([H])c(OC([H])([H])[H])c(OC([H])([H])[H])c(OC([H])([H])[H])c1[H])C([H])([H])c1c([H])c([H])c([H])c([H])c1[H])C([H])([H])c1c([H])c([H])c(O[H])c([H])c1[H]


 42 44  0  0  0  0  0  0  0  0999 V2000
    8.2286   47.0222  128.9185 C   0  0  0  0  0  0  0  0  0  0  0  0
    9.5773   46.7585  131.0119 C   0  0  0  0  0  0  0  0  0  0  0  0
   10.6474   46.8131  130.3657 O   0  0  0  0  0  0  0  0  0  0  0  0
    8.3321   46.8594  130.3517 N   0  0  0  0  0  0  0  0  0  0  0  0
    7.4373   46.8212  130.9016 H   0  0  0  0  0  0  0  0  0  0  0  0
    8.6600   46.9240  134.6269 C   0  0  0  0  0  0  0  0  0  0  0  0
    8.6062   47.0851  133.2375 C   0  0  0  0  0  0  0  0  0  0  0  0
    9.6176   46.5920  132.4450 C   0  0  0  0  0  0  0  0  0  0  0  0
   10.6945   45.9326  133.0241 C   0  0  0  0  0  0  0  0  0  0  0  0
   10.7640   45.7654  134.3832 C   0  0  0  0  0  0  0  0  0  0  0  0
    9.7456   46.2641  135.1597 C   0  0  0  0  0  0  0  0  0  0  0  0
    7.6031   48.8069  135.6747 C   0  0  0  0  0  0  0  0  0  0  0  0
    7.6521   47.4130  135.4438 O   0  0  0  0  0  0  0  0  0  0  0  0
   11.8290   45.1109  134.9846 O   0  0  0  0  0  0  0  0  0  0  0  0
   11.7579   43.7332  135.2129 C   0  0  0  0  0  0  0  0  0  0  0  0
    9.8222   46.0917  136.5353 O   0  0  0  0  0  0  0  0  0  0  0  0
    9.8585   47.2458  137.3704 C   0  0  0  0  0  0  0  0  0  0  0  0
    9.2067   46.1690  128.2173 C   0  0  0  0  0  0  0  0  0  0  0  0
    9.7849   46.5726  127.1954 O   0  0  0  0  0  0  0  0  0  0  0  0
    9.4916   44.8810  128.7083 N   0  0  0  0  0  0  0  0  0  0  0  0
    9.0293   44.5245  129.5467 H   0  0  0  0  0  0  0  0  0  0  0  0
   10.4500   43.9779  128.0680 C   0  0  0  0  0  0  0  0  0  0  0  0
    9.7939   42.9189  127.3328 C   0  0  0  0  0  0  0  0  0  0  0  0
    8.6876   43.1383  126.5559 O   0  0  0  0  0  0  0  0  0  0  0  0
   10.2334   41.7367  127.3935 O   0  0  0  0  0  0  0  0  0  0  0  0
    8.4914   42.6003  125.7293 H   0  0  0  0  0  0  0  0  0  0  0  0
   11.3908   43.4911  129.1311 C   0  0  0  0  0  0  0  0  0  0  0  0
   10.7929   43.1469  130.4279 C   0  0  0  0  0  0  0  0  0  0  0  0
   11.5296   42.7411  131.5064 C   0  0  0  0  0  0  0  0  0  0  0  0
   10.9178   42.4328  132.6867 C   0  0  0  0  0  0  0  0  0  0  0  0
    9.5523   42.5057  132.8729 C   0  0  0  0  0  0  0  0  0  0  0  0
    8.9559   42.1917  134.0663 O   0  0  0  0  0  0  0  0  0  0  0  0
    8.8250   42.9193  131.7665 C   0  0  0  0  0  0  0  0  0  0  0  0
    9.4197   43.2301  130.5833 C   0  0  0  0  0  0  0  0  0  0  0  0
    7.9736   42.2421  134.2070 H   0  0  0  0  0  0  0  0  0  0  0  0
    8.2515   48.4676  128.4684 C   0  0  0  0  0  0  0  0  0  0  0  0
    7.1653   49.2133  129.1298 C   0  0  0  0  0  0  0  0  0  0  0  0
    7.4217   50.3437  129.8592 C   0  0  0  0  0  0  0  0  0  0  0  0
    6.3648   51.0126  130.4795 C   0  0  0  0  0  0  0  0  0  0  0  0
    5.0925   50.5404  130.3561 C   0  0  0  0  0  0  0  0  0  0  0  0
    4.8251   49.4019  129.6226 C   0  0  0  0  0  0  0  0  0  0  0  0
    5.8795   48.7500  129.0145 C   0  0  0  0  0  0  0  0  0  0  0  0
 12 13  1  0  0  0
 13  6  1  0  0  0
  6  7  2  0  0  0
  7  8  1  0  0  0
  8  9  2  0  0  0
  9 10  1  0  0  0
 10 14  1  0  0  0
 14 15  1  0  0  0
 10 11  2  0  0  0
 11 16  1  0  0  0
 16 17  1  0  0  0
  8  2  1  0  0  0
  2  3  2  0  0  0
  2  4  1  0  0  0
  4  1  1  0  0  0
  1 36  1  0  0  0
 36 37  1  0  0  0
 37 38  2  0  0  0
 38 39  1  0  0  0
 39 40  2  0  0  0
 40 41  1  0  0  0
 41 42  2  0  0  0
  1 18  1  0  0  0
 18 19  2  0  0  0
 18 20  1  0  0  0
 20 22  1  0  0  0
 22 27  1  0  0  0
 27 28  1  0  0  0
 28 29  2  0  0  0
 29 30  1  0  0  0
 30 31  2  0  0  0
 31 32  1  0  0  0
 31 33  1  0  0  0
 33 34  2  0  0  0
 22 23  1  0  0  0
 23 24  1  0  0  0
 23 25  2  0  0  0
 11  6  1  0  0  0
 42 37  1  0  0  0
 34 28  1  0  0  0
  4  5  1  0  0  0
 20 21  1  0  0  0
 32 35  1  0  0  0
 24 26  1  0  0  0
M  END
> <minimizedAffinity>
7.07756

> <CNNscore>
0.2443836927

> <CNNaffinity>
7.1842393875

> <CNN_VS>
1.7557109594

> <CNNaffinity_variance>
0.3153132796

$$$$
[H]OC(=O)[C@@]([H])(N([H])C(=O)[C@@]([H])(N([H])C(=O)c1c([H])c(OC([H])([H])[H])c(OC([H])([H])[H])c(OC([H])([H])[H])c1[H])C([H])([H])c1c([H])c([H])c([H])c([H])c1[H])C([H])([H])c1c([H])c([H])c(O[H])c([H])c1[H]


 42 44  0  0  0  0  0  0  0  0999 V2000
   10.6525   47.5148  133.6827 C   0  0  0  0  0  0  0  0  0  0  0  0
    9.5578   47.9644  131.4758 C   0  0  0  0  0  0  0  0  0  0  0  0
   10.5854   47.6058  130.8586 O   0  0  0  0  0  0  0  0  0  0  0  0
    9.5219   47.9411  132.8882 N   0  0  0  0  0  0  0  0  0  0  0  0
    8.6526   48.2356  133.4001 H   0  0  0  0  0  0  0  0  0  0  0  0
    6.4206   47.9306  129.4526 C   0  0  0  0  0  0  0  0  0  0  0  0
    7.5369   47.4914  130.1739 C   0  0  0  0  0  0  0  0  0  0  0  0
    8.3992   48.4048  130.7363 C   0  0  0  0  0  0  0  0  0  0  0  0
    8.1622   49.7656  130.5886 C   0  0  0  0  0  0  0  0  0  0  0  0
    7.0738   50.2141  129.8856 C   0  0  0  0  0  0  0  0  0  0  0  0
    6.2230   49.2885  129.3304 C   0  0  0  0  0  0  0  0  0  0  0  0
    4.3788   46.6785  129.6058 C   0  0  0  0  0  0  0  0  0  0  0  0
    5.5392   47.0277  128.8777 O   0  0  0  0  0  0  0  0  0  0  0  0
    6.8161   51.5675  129.7242 O   0  0  0  0  0  0  0  0  0  0  0  0
    7.0688   52.1807  128.4933 C   0  0  0  0  0  0  0  0  0  0  0  0
    5.1229   49.7492  128.6195 O   0  0  0  0  0  0  0  0  0  0  0  0
    3.9841   50.2108  129.3411 C   0  0  0  0  0  0  0  0  0  0  0  0
   10.5883   46.0673  133.9601 C   0  0  0  0  0  0  0  0  0  0  0  0
   10.2684   45.6491  135.0844 O   0  0  0  0  0  0  0  0  0  0  0  0
   10.8926   45.1449  132.9414 N   0  0  0  0  0  0  0  0  0  0  0  0
   11.1593   45.4625  132.0078 H   0  0  0  0  0  0  0  0  0  0  0  0
   10.8498   43.6948  133.1405 C   0  0  0  0  0  0  0  0  0  0  0  0
   12.1633   43.1385  133.3807 C   0  0  0  0  0  0  0  0  0  0  0  0
   12.6909   42.1373  132.6093 O   0  0  0  0  0  0  0  0  0  0  0  0
   12.8717   43.5701  134.3328 O   0  0  0  0  0  0  0  0  0  0  0  0
   13.6781   42.0474  132.4404 H   0  0  0  0  0  0  0  0  0  0  0  0
   10.1404   43.0981  131.9603 C   0  0  0  0  0  0  0  0  0  0  0  0
   10.2917   43.8020  130.6800 C   0  0  0  0  0  0  0  0  0  0  0  0
   11.5079   44.1118  130.1366 C   0  0  0  0  0  0  0  0  0  0  0  0
   11.5862   44.7691  128.9431 C   0  0  0  0  0  0  0  0  0  0  0  0
   10.4775   45.1575  128.2191 C   0  0  0  0  0  0  0  0  0  0  0  0
   10.5762   45.8172  127.0218 O   0  0  0  0  0  0  0  0  0  0  0  0
    9.2549   44.8333  128.7885 C   0  0  0  0  0  0  0  0  0  0  0  0
    9.1600   44.1786  129.9771 C   0  0  0  0  0  0  0  0  0  0  0  0
    9.7821   46.0996  126.4956 H   0  0  0  0  0  0  0  0  0  0  0  0
   10.8796   48.3599  134.9182 C   0  0  0  0  0  0  0  0  0  0  0  0
   12.2715   48.2062  135.3790 C   0  0  0  0  0  0  0  0  0  0  0  0
   13.0861   47.2327  134.8652 C   0  0  0  0  0  0  0  0  0  0  0  0
   14.3942   47.1143  135.3388 C   0  0  0  0  0  0  0  0  0  0  0  0
   14.8500   47.9627  136.3029 C   0  0  0  0  0  0  0  0  0  0  0  0
   14.0356   48.9470  136.8261 C   0  0  0  0  0  0  0  0  0  0  0  0
   12.7442   49.0530  136.3490 C   0  0  0  0  0  0  0  0  0  0  0  0
 12 13  1  0  0  0
 13  6  1  0  0  0
  6  7  2  0  0  0
  7  8  1  0  0  0
  8  9  2  0  0  0
  9 10  1  0  0  0
 10 14  1  0  0  0
 14 15  1  0  0  0
 10 11  2  0  0  0
 11 16  1  0  0  0
 16 17  1  0  0  0
  8  2  1  0  0  0
  2  3  2  0  0  0
  2  4  1  0  0  0
  4  1  1  0  0  0
  1 36  1  0  0  0
 36 37  1  0  0  0
 37 38  2  0  0  0
 38 39  1  0  0  0
 39 40  2  0  0  0
 40 41  1  0  0  0
 41 42  2  0  0  0
  1 18  1  0  0  0
 18 19  2  0  0  0
 18 20  1  0  0  0
 20 22  1  0  0  0
 22 27  1  0  0  0
 27 28  1  0  0  0
 28 29  2  0  0  0
 29 30  1  0  0  0
 30 31  2  0  0  0
 31 32  1  0  0  0
 31 33  1  0  0  0
 33 34  2  0  0  0
 22 23  1  0  0  0
 23 24  1  0  0  0
 23 25  2  0  0  0
 11  6  1  0  0  0
 42 37  1  0  0  0
 34 28  1  0  0  0
  4  5  1  0  0  0
 20 21  1  0  0  0
 32 35  1  0  0  0
 24 26  1  0  0  0
M  END
> <minimizedAffinity>
7.44598

> <CNNscore>
0.2274583280

> <CNNaffinity>
7.3084387779

> <CNN_VS>
1.6623653173

> <CNNaffinity_variance>
0.4391405582

$$$$
[H]OC(=O)[C@@]([H])(N([H])C(=O)[C@@]([H])(N([H])C(=O)c1c([H])c(OC([H])([H])[H])c(OC([H])([H])[H])c(OC([H])([H])[H])c1[H])C([H])([H])c1c([H])c([H])c([H])c([H])c1[H])C([H])([H])c1c([H])c([H])c(O[H])c([H])c1[H]


 42 44  0  0  0  0  0  0  0  0999 V2000
    7.1038   46.1860  129.3419 C   0  0  0  0  0  0  0  0  0  0  0  0
    8.0107   45.2483  131.4795 C   0  0  0  0  0  0  0  0  0  0  0  0
    7.8884   44.0782  131.0535 O   0  0  0  0  0  0  0  0  0  0  0  0
    7.6402   46.3492  130.6749 N   0  0  0  0  0  0  0  0  0  0  0  0
    7.7534   47.3299  131.0357 H   0  0  0  0  0  0  0  0  0  0  0  0
    8.6510   46.7710  134.8273 C   0  0  0  0  0  0  0  0  0  0  0  0
    8.1288   46.5591  133.5460 C   0  0  0  0  0  0  0  0  0  0  0  0
    8.5361   45.4733  132.8048 C   0  0  0  0  0  0  0  0  0  0  0  0
    9.4671   44.5851  133.3283 C   0  0  0  0  0  0  0  0  0  0  0  0
    9.9892   44.7767  134.5816 C   0  0  0  0  0  0  0  0  0  0  0  0
    9.5717   45.8660  135.3080 C   0  0  0  0  0  0  0  0  0  0  0  0
    8.1831   49.1212  134.9599 C   0  0  0  0  0  0  0  0  0  0  0  0
    8.2548   47.8582  135.5910 O   0  0  0  0  0  0  0  0  0  0  0  0
   10.9201   43.9039  135.1257 O   0  0  0  0  0  0  0  0  0  0  0  0
   11.4637   42.8869  134.3350 C   0  0  0  0  0  0  0  0  0  0  0  0
   10.1046   46.0543  136.5763 O   0  0  0  0  0  0  0  0  0  0  0  0
   10.1769   44.9406  137.4624 C   0  0  0  0  0  0  0  0  0  0  0  0
    7.9385   45.2674  128.5447 C   0  0  0  0  0  0  0  0  0  0  0  0
    7.4349   44.5567  127.6601 O   0  0  0  0  0  0  0  0  0  0  0  0
    9.3232   45.1917  128.7858 N   0  0  0  0  0  0  0  0  0  0  0  0
    9.7626   45.7650  129.5082 H   0  0  0  0  0  0  0  0  0  0  0  0
   10.2156   44.3057  128.0356 C   0  0  0  0  0  0  0  0  0  0  0  0
    9.9451   42.9093  128.2988 C   0  0  0  0  0  0  0  0  0  0  0  0
    9.5502   42.4553  129.5292 O   0  0  0  0  0  0  0  0  0  0  0  0
   10.0730   42.0531  127.3796 O   0  0  0  0  0  0  0  0  0  0  0  0
    8.9479   41.6583  129.6442 H   0  0  0  0  0  0  0  0  0  0  0  0
   11.6250   44.7225  128.3392 C   0  0  0  0  0  0  0  0  0  0  0  0
   11.9396   44.9920  129.7484 C   0  0  0  0  0  0  0  0  0  0  0  0
   12.7137   44.1633  130.5131 C   0  0  0  0  0  0  0  0  0  0  0  0
   12.9710   44.4654  131.8189 C   0  0  0  0  0  0  0  0  0  0  0  0
   12.4838   45.5948  132.4444 C   0  0  0  0  0  0  0  0  0  0  0  0
   12.7531   45.8813  133.7574 O   0  0  0  0  0  0  0  0  0  0  0  0
   11.7016   46.4207  131.6507 C   0  0  0  0  0  0  0  0  0  0  0  0
   11.4359   46.1338  130.3478 C   0  0  0  0  0  0  0  0  0  0  0  0
   12.4056   46.6925  134.2138 H   0  0  0  0  0  0  0  0  0  0  0  0
    6.8051   47.4955  128.6431 C   0  0  0  0  0  0  0  0  0  0  0  0
    7.3708   48.6149  129.4179 C   0  0  0  0  0  0  0  0  0  0  0  0
    8.6852   48.6197  129.8023 C   0  0  0  0  0  0  0  0  0  0  0  0
    9.1771   49.6943  130.5458 C   0  0  0  0  0  0  0  0  0  0  0  0
    8.3522   50.7255  130.8821 C   0  0  0  0  0  0  0  0  0  0  0  0
    7.0261   50.7288  130.4985 C   0  0  0  0  0  0  0  0  0  0  0  0
    6.5525   49.6599  129.7637 C   0  0  0  0  0  0  0  0  0  0  0  0
 12 13  1  0  0  0
 13  6  1  0  0  0
  6  7  2  0  0  0
  7  8  1  0  0  0
  8  9  2  0  0  0
  9 10  1  0  0  0
 10 14  1  0  0  0
 14 15  1  0  0  0
 10 11  2  0  0  0
 11 16  1  0  0  0
 16 17  1  0  0  0
  8  2  1  0  0  0
  2  3  2  0  0  0
  2  4  1  0  0  0
  4  1  1  0  0  0
  1 36  1  0  0  0
 36 37  1  0  0  0
 37 38  2  0  0  0
 38 39  1  0  0  0
 39 40  2  0  0  0
 40 41  1  0  0  0
 41 42  2  0  0  0
  1 18  1  0  0  0
 18 19  2  0  0  0
 18 20  1  0  0  0
 20 22  1  0  0  0
 22 27  1  0  0  0
 27 28  1  0  0  0
 28 29  2  0  0  0
 29 30  1  0  0  0
 30 31  2  0  0  0
 31 32  1  0  0  0
 31 33  1  0  0  0
 33 34  2  0  0  0
 22 23  1  0  0  0
 23 24  1  0  0  0
 23 25  2  0  0  0
 11  6  1  0  0  0
 42 37  1  0  0  0
 34 28  1  0  0  0
  4  5  1  0  0  0
 20 21  1  0  0  0
 32 35  1  0  0  0
 24 26  1  0  0  0
M  END
> <minimizedAffinity>
4.29367

> <CNNscore>
0.2221238762

> <CNNaffinity>
6.8923048973

> <CNN_VS>
1.5309454203

> <CNNaffinity_variance>
0.0574886687

$$$$
[H]OC(C([H])([H])[H])(C([H])([H])[H])C([H])([H])C([H])([H])N([H])S(=O)(=O)c1c([H])c([H])c(C([H])([H])[H])c(-c2c([H])nc(N([H])[H])c(-c3oc(C([H])([H])[H])nc3[H])c2[H])c1[H]


 34 36  0  0  0  0  0  0  0  0999 V2000
    8.8862   44.7863  129.8977 C   0  0  0  0  0  0  0  0  0  0  0  0
    9.4829   44.2234  131.0211 C   0  0  0  0  0  0  0  0  0  0  0  0
    9.9545   42.9279  131.0199 C   0  0  0  0  0  0  0  0  0  0  0  0
    9.8102   42.2071  129.8521 C   0  0  0  0  0  0  0  0  0  0  0  0
    9.2183   42.7682  128.7408 C   0  0  0  0  0  0  0  0  0  0  0  0
    8.7380   44.0762  128.7313 C   0  0  0  0  0  0  0  0  0  0  0  0
    8.0951   44.6267  127.4977 C   0  0  0  0  0  0  0  0  0  0  0  0
    8.6187   48.3190  131.0382 C   0  0  0  0  0  0  0  0  0  0  0  0
    8.9905   47.0005  130.9077 C   0  0  0  0  0  0  0  0  0  0  0  0
    8.4251   46.1587  129.9735 C   0  0  0  0  0  0  0  0  0  0  0  0
    7.4537   46.6484  129.1381 C   0  0  0  0  0  0  0  0  0  0  0  0
    7.0893   47.9327  129.2632 N   0  0  0  0  0  0  0  0  0  0  0  0
    7.6323   48.7599  130.1680 C   0  0  0  0  0  0  0  0  0  0  0  0
    7.2390   50.1224  130.2934 N   0  0  0  0  0  0  0  0  0  0  0  0
    7.5567   50.8526  129.6281 H   0  0  0  0  0  0  0  0  0  0  0  0
    6.6144   50.4076  131.0715 H   0  0  0  0  0  0  0  0  0  0  0  0
    9.6560   52.4260  133.6485 C   0  0  0  0  0  0  0  0  0  0  0  0
    9.6510   51.0095  133.1477 C   0  0  0  0  0  0  0  0  0  0  0  0
   10.4017   50.0346  133.6569 N   0  0  0  0  0  0  0  0  0  0  0  0
   10.1475   48.8947  132.9706 C   0  0  0  0  0  0  0  0  0  0  0  0
    9.2159   49.2124  132.0267 C   0  0  0  0  0  0  0  0  0  0  0  0
    8.9604   50.4892  132.1838 O   0  0  0  0  0  0  0  0  0  0  0  0
   10.7078   42.2249  132.4460 S   0  0  0  0  0  0  0  0  0  0  0  0
   11.1899   40.8393  132.1931 O   0  0  0  0  0  0  0  0  0  0  0  0
    9.6613   42.2044  133.5253 O   0  0  0  0  0  0  0  0  0  0  0  0
   12.0030   43.2222  133.0119 N   0  0  0  0  0  0  0  0  0  0  0  0
   11.9886   43.2589  134.0436 H   0  0  0  0  0  0  0  0  0  0  0  0
   11.8830   44.5786  132.5137 C   0  0  0  0  0  0  0  0  0  0  0  0
   13.1720   44.9081  131.7906 C   0  0  0  0  0  0  0  0  0  0  0  0
   13.0411   44.4982  130.3395 C   0  0  0  0  0  0  0  0  0  0  0  0
   12.0661   45.3429  129.5877 C   0  0  0  0  0  0  0  0  0  0  0  0
   14.3742   44.5047  129.6455 C   0  0  0  0  0  0  0  0  0  0  0  0
   12.5602   43.1852  130.3372 O   0  0  0  0  0  0  0  0  0  0  0  0
   13.2396   42.5390  130.0158 H   0  0  0  0  0  0  0  0  0  0  0  0
 17 18  1  0  0  0
 18 19  2  0  0  0
 19 20  1  0  0  0
 20 21  2  0  0  0
 21 22  1  0  0  0
 21  8  1  0  0  0
  8  9  2  0  0  0
  9 10  1  0  0  0
 10 11  2  0  0  0
 11 12  1  0  0  0
 12 13  2  0  0  0
 13 14  1  0  0  0
 10  1  1  0  0  0
  1  2  2  0  0  0
  2  3  1  0  0  0
  3  4  2  0  0  0
  4  5  1  0  0  0
  5  6  2  0  0  0
  6  7  1  0  0  0
  3 23  1  0  0  0
 23 24  2  0  0  0
 23 25  2  0  0  0
 23 26  1  0  0  0
 26 28  1  0  0  0
 28 29  1  0  0  0
 29 30  1  0  0  0
 30 31  1  0  0  0
 30 32  1  0  0  0
 30 33  1  0  0  0
 22 18  1  0  0  0
 13  8  1  0  0  0
  6  1  1  0  0  0
 14 15  1  0  0  0
 14 16  1  0  0  0
 26 27  1  0  0  0
 33 34  1  0  0  0
M  END
> <minimizedAffinity>
4.24256

> <CNNscore>
0.4018240273

> <CNNaffinity>
7.7355127335

> <CNN_VS>
3.1083149910

> <CNNaffinity_variance>
1.3942949772

$$$$
[H]OC(C([H])([H])[H])(C([H])([H])[H])C([H])([H])C([H])([H])N([H])S(=O)(=O)c1c([H])c([H])c(C([H])([H])[H])c(-c2c([H])nc(N([H])[H])c(-c3oc(C([H])([H])[H])nc3[H])c2[H])c1[H]


 34 36  0  0  0  0  0  0  0  0999 V2000
    9.3823   45.6932  129.1231 C   0  0  0  0  0  0  0  0  0  0  0  0
    9.0242   44.6874  130.0147 C   0  0  0  0  0  0  0  0  0  0  0  0
    9.4599   43.3890  129.8569 C   0  0  0  0  0  0  0  0  0  0  0  0
   10.2709   43.1251  128.7721 C   0  0  0  0  0  0  0  0  0  0  0  0
   10.6236   44.1245  127.8905 C   0  0  0  0  0  0  0  0  0  0  0  0
   10.1887   45.4397  128.0405 C   0  0  0  0  0  0  0  0  0  0  0  0
   10.5962   46.4791  127.0446 C   0  0  0  0  0  0  0  0  0  0  0  0
    8.9299   48.9994  130.7715 C   0  0  0  0  0  0  0  0  0  0  0  0
    9.3358   47.7179  130.4767 C   0  0  0  0  0  0  0  0  0  0  0  0
    8.8930   47.0368  129.3627 C   0  0  0  0  0  0  0  0  0  0  0  0
    8.0135   47.6549  128.5107 C   0  0  0  0  0  0  0  0  0  0  0  0
    7.6162   48.9034  128.7957 N   0  0  0  0  0  0  0  0  0  0  0  0
    8.0403   49.5749  129.8759 C   0  0  0  0  0  0  0  0  0  0  0  0
    7.6129   50.9006  130.1704 N   0  0  0  0  0  0  0  0  0  0  0  0
    7.9913   51.7270  129.6696 H   0  0  0  0  0  0  0  0  0  0  0  0
    6.9003   51.0592  130.9078 H   0  0  0  0  0  0  0  0  0  0  0  0
    9.7230   52.6794  134.0251 C   0  0  0  0  0  0  0  0  0  0  0  0
    9.7296   51.3370  133.3504 C   0  0  0  0  0  0  0  0  0  0  0  0
   10.3329   50.2567  133.8425 N   0  0  0  0  0  0  0  0  0  0  0  0
   10.1395   49.2283  132.9822 C   0  0  0  0  0  0  0  0  0  0  0  0
    9.3975   49.7229  131.9505 C   0  0  0  0  0  0  0  0  0  0  0  0
    9.1850   50.9867  132.2290 O   0  0  0  0  0  0  0  0  0  0  0  0
    9.0014   42.1237  130.9901 S   0  0  0  0  0  0  0  0  0  0  0  0
   10.0953   41.1337  131.1892 O   0  0  0  0  0  0  0  0  0  0  0  0
    7.7984   41.4342  130.4089 O   0  0  0  0  0  0  0  0  0  0  0  0
    8.5163   42.8020  132.5057 N   0  0  0  0  0  0  0  0  0  0  0  0
    7.5554   43.1719  132.4297 H   0  0  0  0  0  0  0  0  0  0  0  0
    9.3863   43.8930  132.8998 C   0  0  0  0  0  0  0  0  0  0  0  0
   10.6476   43.2792  133.4703 C   0  0  0  0  0  0  0  0  0  0  0  0
   11.8328   44.1346  133.0770 C   0  0  0  0  0  0  0  0  0  0  0  0
   11.4275   45.4240  132.4424 C   0  0  0  0  0  0  0  0  0  0  0  0
   12.7337   44.3963  134.2511 C   0  0  0  0  0  0  0  0  0  0  0  0
   12.5578   43.4022  132.1319 O   0  0  0  0  0  0  0  0  0  0  0  0
   13.4340   43.1013  132.4845 H   0  0  0  0  0  0  0  0  0  0  0  0
 17 18  1  0  0  0
 18 19  2  0  0  0
 19 20  1  0  0  0
 20 21  2  0  0  0
 21 22  1  0  0  0
 21  8  1  0  0  0
  8  9  2  0  0  0
  9 10  1  0  0  0
 10 11  2  0  0  0
 11 12  1  0  0  0
 12 13  2  0  0  0
 13 14  1  0  0  0
 10  1  1  0  0  0
  1  2  2  0  0  0
  2  3  1  0  0  0
  3  4  2  0  0  0
  4  5  1  0  0  0
  5  6  2  0  0  0
  6  7  1  0  0  0
  3 23  1  0  0  0
 23 24  2  0  0  0
 23 25  2  0  0  0
 23 26  1  0  0  0
 26 28  1  0  0  0
 28 29  1  0  0  0
 29 30  1  0  0  0
 30 31  1  0  0  0
 30 32  1  0  0  0
 30 33  1  0  0  0
 22 18  1  0  0  0
 13  8  1  0  0  0
  6  1  1  0  0  0
 14 15  1  0  0  0
 14 16  1  0  0  0
 26 27  1  0  0  0
 33 34  1  0  0  0
M  END
> <minimizedAffinity>
2.17338

> <CNNscore>
0.3849169016

> <CNNaffinity>
7.7178258896

> <CNN_VS>
2.9707217216

> <CNNaffinity_variance>
1.1588966846

$$$$
[H]OC(C([H])([H])[H])(C([H])([H])[H])C([H])([H])C([H])([H])N([H])S(=O)(=O)c1c([H])c([H])c(C([H])([H])[H])c(-c2c([H])nc(N([H])[H])c(-c3oc(C([H])([H])[H])nc3[H])c2[H])c1[H]


 34 36  0  0  0  0  0  0  0  0999 V2000
    9.5638   48.2724  130.7749 C   0  0  0  0  0  0  0  0  0  0  0  0
   10.4422   47.2587  131.1433 C   0  0  0  0  0  0  0  0  0  0  0  0
   10.9312   47.1537  132.4280 C   0  0  0  0  0  0  0  0  0  0  0  0
   10.5119   48.1006  133.3400 C   0  0  0  0  0  0  0  0  0  0  0  0
    9.6413   49.1038  132.9713 C   0  0  0  0  0  0  0  0  0  0  0  0
    9.1414   49.2193  131.6758 C   0  0  0  0  0  0  0  0  0  0  0  0
    8.2076   50.3366  131.3327 C   0  0  0  0  0  0  0  0  0  0  0  0
    9.0753   47.2805  127.2210 C   0  0  0  0  0  0  0  0  0  0  0  0
    9.4919   47.3251  128.5319 C   0  0  0  0  0  0  0  0  0  0  0  0
    9.0846   48.3096  129.4071 C   0  0  0  0  0  0  0  0  0  0  0  0
    8.2306   49.2855  128.9603 C   0  0  0  0  0  0  0  0  0  0  0  0
    7.8233   49.2446  127.6835 N   0  0  0  0  0  0  0  0  0  0  0  0
    8.2131   48.2922  126.8239 C   0  0  0  0  0  0  0  0  0  0  0  0
    7.7752   48.2568  125.4698 N   0  0  0  0  0  0  0  0  0  0  0  0
    6.8282   47.9261  125.2039 H   0  0  0  0  0  0  0  0  0  0  0  0
    8.4145   48.5692  124.7144 H   0  0  0  0  0  0  0  0  0  0  0  0
    8.9301   43.7403  123.7277 C   0  0  0  0  0  0  0  0  0  0  0  0
    9.4183   44.7037  124.7722 C   0  0  0  0  0  0  0  0  0  0  0  0
   10.6907   44.8160  125.1483 N   0  0  0  0  0  0  0  0  0  0  0  0
   10.7729   45.7740  126.1025 C   0  0  0  0  0  0  0  0  0  0  0  0
    9.5051   46.2391  126.2923 C   0  0  0  0  0  0  0  0  0  0  0  0
    8.7422   45.5606  125.4689 O   0  0  0  0  0  0  0  0  0  0  0  0
   12.0420   45.8678  132.8843 S   0  0  0  0  0  0  0  0  0  0  0  0
   12.4546   45.9709  134.3110 O   0  0  0  0  0  0  0  0  0  0  0  0
   13.2503   46.0026  131.9999 O   0  0  0  0  0  0  0  0  0  0  0  0
   11.3490   44.3151  132.5657 N   0  0  0  0  0  0  0  0  0  0  0  0
   10.8309   44.3419  131.6731 H   0  0  0  0  0  0  0  0  0  0  0  0
   10.4218   43.9251  133.6101 C   0  0  0  0  0  0  0  0  0  0  0  0
   10.1011   42.4598  133.4030 C   0  0  0  0  0  0  0  0  0  0  0  0
   10.8905   41.9456  132.2184 C   0  0  0  0  0  0  0  0  0  0  0  0
   11.0197   40.4580  132.2139 C   0  0  0  0  0  0  0  0  0  0  0  0
   10.3000   42.4176  130.9195 C   0  0  0  0  0  0  0  0  0  0  0  0
   12.1754   42.4860  132.3297 O   0  0  0  0  0  0  0  0  0  0  0  0
   12.3622   43.1543  131.6219 H   0  0  0  0  0  0  0  0  0  0  0  0
 17 18  1  0  0  0
 18 19  2  0  0  0
 19 20  1  0  0  0
 20 21  2  0  0  0
 21 22  1  0  0  0
 21  8  1  0  0  0
  8  9  2  0  0  0
  9 10  1  0  0  0
 10 11  2  0  0  0
 11 12  1  0  0  0
 12 13  2  0  0  0
 13 14  1  0  0  0
 10  1  1  0  0  0
  1  2  2  0  0  0
  2  3  1  0  0  0
  3  4  2  0  0  0
  4  5  1  0  0  0
  5  6  2  0  0  0
  6  7  1  0  0  0
  3 23  1  0  0  0
 23 24  2  0  0  0
 23 25  2  0  0  0
 23 26  1  0  0  0
 26 28  1  0  0  0
 28 29  1  0  0  0
 29 30  1  0  0  0
 30 31  1  0  0  0
 30 32  1  0  0  0
 30 33  1  0  0  0
 22 18  1  0  0  0
 13  8  1  0  0  0
  6  1  1  0  0  0
 14 15  1  0  0  0
 14 16  1  0  0  0
 26 27  1  0  0  0
 33 34  1  0  0  0
M  END
> <minimizedAffinity>
37.84874

> <CNNscore>
0.3482124209

> <CNNaffinity>
6.8969483376

> <CNN_VS>
2.4016029835

> <CNNaffinity_variance>
0.7116795778

$$$$
[H]OC(C([H])([H])[H])(C([H])([H])[H])C([H])([H])C([H])([H])N([H])S(=O)(=O)c1c([H])c([H])c(C([H])([H])[H])c(-c2c([H])nc(N([H])[H])c(-c3oc(C([H])([H])[H])nc3[H])c2[H])c1[H]


 34 36  0  0  0  0  0  0  0  0999 V2000
   10.0940   46.4443  133.2024 C   0  0  0  0  0  0  0  0  0  0  0  0
   10.8137   45.4929  132.4869 C   0  0  0  0  0  0  0  0  0  0  0  0
   11.2523   44.3241  133.0716 C   0  0  0  0  0  0  0  0  0  0  0  0
   10.9469   44.1340  134.4038 C   0  0  0  0  0  0  0  0  0  0  0  0
   10.2335   45.0791  135.1097 C   0  0  0  0  0  0  0  0  0  0  0  0
    9.7858   46.2637  134.5287 C   0  0  0  0  0  0  0  0  0  0  0  0
    9.0250   47.2569  135.3491 C   0  0  0  0  0  0  0  0  0  0  0  0
    8.1135   48.6509  130.9528 C   0  0  0  0  0  0  0  0  0  0  0  0
    8.5971   47.5595  131.6374 C   0  0  0  0  0  0  0  0  0  0  0  0
    9.6577   47.6435  132.5143 C   0  0  0  0  0  0  0  0  0  0  0  0
   10.2587   48.8597  132.7171 C   0  0  0  0  0  0  0  0  0  0  0  0
    9.7897   49.9248  132.0513 N   0  0  0  0  0  0  0  0  0  0  0  0
    8.7593   49.8544  131.1963 C   0  0  0  0  0  0  0  0  0  0  0  0
    8.2680   50.9910  130.4936 N   0  0  0  0  0  0  0  0  0  0  0  0
    7.6713   51.7070  130.9498 H   0  0  0  0  0  0  0  0  0  0  0  0
    8.5072   51.1191  129.4921 H   0  0  0  0  0  0  0  0  0  0  0  0
    3.8893   49.7487  128.5635 C   0  0  0  0  0  0  0  0  0  0  0  0
    5.1524   49.0613  128.9988 C   0  0  0  0  0  0  0  0  0  0  0  0
    5.6075   47.9283  128.4673 N   0  0  0  0  0  0  0  0  0  0  0  0
    6.7614   47.5941  129.0933 C   0  0  0  0  0  0  0  0  0  0  0  0
    6.9905   48.5646  130.0236 C   0  0  0  0  0  0  0  0  0  0  0  0
    5.9948   49.4116  129.9177 O   0  0  0  0  0  0  0  0  0  0  0  0
   12.1621   43.1269  132.1581 S   0  0  0  0  0  0  0  0  0  0  0  0
   11.3185   41.9610  131.7768 O   0  0  0  0  0  0  0  0  0  0  0  0
   13.2864   42.6663  133.0437 O   0  0  0  0  0  0  0  0  0  0  0  0
   12.8792   43.8395  130.7544 N   0  0  0  0  0  0  0  0  0  0  0  0
   13.5917   44.5299  131.0401 H   0  0  0  0  0  0  0  0  0  0  0  0
   11.8905   44.5250  129.9452 C   0  0  0  0  0  0  0  0  0  0  0  0
   10.9988   43.4663  129.3312 C   0  0  0  0  0  0  0  0  0  0  0  0
    9.6410   44.0711  129.0458 C   0  0  0  0  0  0  0  0  0  0  0  0
    8.6527   43.8076  130.1336 C   0  0  0  0  0  0  0  0  0  0  0  0
    9.7423   45.5477  128.7852 C   0  0  0  0  0  0  0  0  0  0  0  0
    9.1680   43.4590  127.8809 O   0  0  0  0  0  0  0  0  0  0  0  0
    9.1358   44.0877  127.1152 H   0  0  0  0  0  0  0  0  0  0  0  0
 17 18  1  0  0  0
 18 19  2  0  0  0
 19 20  1  0  0  0
 20 21  2  0  0  0
 21 22  1  0  0  0
 21  8  1  0  0  0
  8  9  2  0  0  0
  9 10  1  0  0  0
 10 11  2  0  0  0
 11 12  1  0  0  0
 12 13  2  0  0  0
 13 14  1  0  0  0
 10  1  1  0  0  0
  1  2  2  0  0  0
  2  3  1  0  0  0
  3  4  2  0  0  0
  4  5  1  0  0  0
  5  6  2  0  0  0
  6  7  1  0  0  0
  3 23  1  0  0  0
 23 24  2  0  0  0
 23 25  2  0  0  0
 23 26  1  0  0  0
 26 28  1  0  0  0
 28 29  1  0  0  0
 29 30  1  0  0  0
 30 31  1  0  0  0
 30 32  1  0  0  0
 30 33  1  0  0  0
 22 18  1  0  0  0
 13  8  1  0  0  0
  6  1  1  0  0  0
 14 15  1  0  0  0
 14 16  1  0  0  0
 26 27  1  0  0  0
 33 34  1  0  0  0
M  END
> <minimizedAffinity>
-3.52513

> <CNNscore>
0.3465152979

> <CNNaffinity>
7.9485993385

> <CNN_VS>
2.7543113232

> <CNNaffinity_variance>
0.4348229468

$$$$
[H]OC(C([H])([H])[H])(C([H])([H])[H])C([H])([H])C([H])([H])N([H])S(=O)(=O)c1c([H])c([H])c(C([H])([H])[H])c(-c2c([H])nc(N([H])[H])c(-c3oc(C([H])([H])[H])nc3[H])c2[H])c1[H]


 34 36  0  0  0  0  0  0  0  0999 V2000
    9.2631   46.8614  132.1613 C   0  0  0  0  0  0  0  0  0  0  0  0
    9.5642   45.5189  132.3665 C   0  0  0  0  0  0  0  0  0  0  0  0
   10.4978   45.1191  133.2987 C   0  0  0  0  0  0  0  0  0  0  0  0
   11.1259   46.1101  134.0250 C   0  0  0  0  0  0  0  0  0  0  0  0
   10.8250   47.4395  133.8188 C   0  0  0  0  0  0  0  0  0  0  0  0
    9.8835   47.8545  132.8792 C   0  0  0  0  0  0  0  0  0  0  0  0
    9.6072   49.3130  132.6929 C   0  0  0  0  0  0  0  0  0  0  0  0
    7.1817   48.9313  129.8730 C   0  0  0  0  0  0  0  0  0  0  0  0
    8.1010   48.5241  130.8127 C   0  0  0  0  0  0  0  0  0  0  0  0
    8.2613   47.2022  131.1702 C   0  0  0  0  0  0  0  0  0  0  0  0
    7.4771   46.2506  130.5694 C   0  0  0  0  0  0  0  0  0  0  0  0
    6.5804   46.6445  129.6537 N   0  0  0  0  0  0  0  0  0  0  0  0
    6.4162   47.9270  129.2986 C   0  0  0  0  0  0  0  0  0  0  0  0
    5.4614   48.3359  128.3250 N   0  0  0  0  0  0  0  0  0  0  0  0
    5.6217   48.2107  127.3074 H   0  0  0  0  0  0  0  0  0  0  0  0
    4.5720   48.7749  128.6299 H   0  0  0  0  0  0  0  0  0  0  0  0
    7.2419   53.1165  127.1827 C   0  0  0  0  0  0  0  0  0  0  0  0
    7.0458   52.1371  128.3051 C   0  0  0  0  0  0  0  0  0  0  0  0
    6.5358   52.4552  129.4933 N   0  0  0  0  0  0  0  0  0  0  0  0
    6.5023   51.3380  130.2586 C   0  0  0  0  0  0  0  0  0  0  0  0
    7.0101   50.3305  129.4926 C   0  0  0  0  0  0  0  0  0  0  0  0
    7.3161   50.8712  128.3376 O   0  0  0  0  0  0  0  0  0  0  0  0
   10.8718   43.4185  133.5509 S   0  0  0  0  0  0  0  0  0  0  0  0
    9.6400   42.5910  133.6705 O   0  0  0  0  0  0  0  0  0  0  0  0
   11.6623   43.3316  134.8268 O   0  0  0  0  0  0  0  0  0  0  0  0
   11.8839   42.8171  132.2834 N   0  0  0  0  0  0  0  0  0  0  0  0
   12.6864   43.4523  132.1480 H   0  0  0  0  0  0  0  0  0  0  0  0
   11.1642   42.7307  131.0276 C   0  0  0  0  0  0  0  0  0  0  0  0
   11.6719   43.8476  130.1401 C   0  0  0  0  0  0  0  0  0  0  0  0
   10.6554   44.1111  129.0500 C   0  0  0  0  0  0  0  0  0  0  0  0
    9.3234   43.5046  129.3455 C   0  0  0  0  0  0  0  0  0  0  0  0
   10.5063   45.5826  128.7835 C   0  0  0  0  0  0  0  0  0  0  0  0
   11.1505   43.5104  127.8884 O   0  0  0  0  0  0  0  0  0  0  0  0
   11.4211   44.1788  127.2084 H   0  0  0  0  0  0  0  0  0  0  0  0
 17 18  1  0  0  0
 18 19  2  0  0  0
 19 20  1  0  0  0
 20 21  2  0  0  0
 21 22  1  0  0  0
 21  8  1  0  0  0
  8  9  2  0  0  0
  9 10  1  0  0  0
 10 11  2  0  0  0
 11 12  1  0  0  0
 12 13  2  0  0  0
 13 14  1  0  0  0
 10  1  1  0  0  0
  1  2  2  0  0  0
  2  3  1  0  0  0
  3  4  2  0  0  0
  4  5  1  0  0  0
  5  6  2  0  0  0
  6  7  1  0  0  0
  3 23  1  0  0  0
 23 24  2  0  0  0
 23 25  2  0  0  0
 23 26  1  0  0  0
 26 28  1  0  0  0
 28 29  1  0  0  0
 29 30  1  0  0  0
 30 31  1  0  0  0
 30 32  1  0  0  0
 30 33  1  0  0  0
 22 18  1  0  0  0
 13  8  1  0  0  0
  6  1  1  0  0  0
 14 15  1  0  0  0
 14 16  1  0  0  0
 26 27  1  0  0  0
 33 34  1  0  0  0
M  END
> <minimizedAffinity>
-5.01292

> <CNNscore>
0.2996450961

> <CNNaffinity>
7.6513023376

> <CNN_VS>
2.2926752567

> <CNNaffinity_variance>
0.3424695134

$$$$
[H]OC(C([H])([H])[H])(C([H])([H])[H])C([H])([H])C([H])([H])N([H])S(=O)(=O)c1c([H])c([H])c(C([H])([H])[H])c(-c2c([H])nc(N([H])[H])c(-c3oc(C([H])([H])[H])nc3[H])c2[H])c1[H]


 34 36  0  0  0  0  0  0  0  0999 V2000
   10.6061   47.2466  131.9305 C   0  0  0  0  0  0  0  0  0  0  0  0
   10.0566   46.7882  133.1233 C   0  0  0  0  0  0  0  0  0  0  0  0
    9.3419   47.6192  133.9596 C   0  0  0  0  0  0  0  0  0  0  0  0
    9.1924   48.9326  133.5636 C   0  0  0  0  0  0  0  0  0  0  0  0
    9.7385   49.3833  132.3808 C   0  0  0  0  0  0  0  0  0  0  0  0
   10.4627   48.5522  131.5286 C   0  0  0  0  0  0  0  0  0  0  0  0
   11.0408   49.1018  130.2630 C   0  0  0  0  0  0  0  0  0  0  0  0
   11.2457   44.5893  129.4041 C   0  0  0  0  0  0  0  0  0  0  0  0
   10.6306   45.4977  130.2351 C   0  0  0  0  0  0  0  0  0  0  0  0
   11.3352   46.3090  131.0991 C   0  0  0  0  0  0  0  0  0  0  0  0
   12.7029   46.2122  131.1366 C   0  0  0  0  0  0  0  0  0  0  0  0
   13.3047   45.3278  130.3282 N   0  0  0  0  0  0  0  0  0  0  0  0
   12.6296   44.5341  129.4845 C   0  0  0  0  0  0  0  0  0  0  0  0
   13.2773   43.5979  128.6296 N   0  0  0  0  0  0  0  0  0  0  0  0
   13.7638   43.8884  127.7602 H   0  0  0  0  0  0  0  0  0  0  0  0
   13.2698   42.5891  128.8725 H   0  0  0  0  0  0  0  0  0  0  0  0
    9.8250   40.5787  126.8247 C   0  0  0  0  0  0  0  0  0  0  0  0
    9.9021   41.9736  127.3776 C   0  0  0  0  0  0  0  0  0  0  0  0
    9.0726   42.9584  127.0382 N   0  0  0  0  0  0  0  0  0  0  0  0
    9.4275   44.0727  127.7219 C   0  0  0  0  0  0  0  0  0  0  0  0
   10.5019   43.7291  128.4883 C   0  0  0  0  0  0  0  0  0  0  0  0
   10.7365   42.4633  128.2383 O   0  0  0  0  0  0  0  0  0  0  0  0
    8.6507   47.0299  135.4663 S   0  0  0  0  0  0  0  0  0  0  0  0
    7.1936   46.7532  135.3378 O   0  0  0  0  0  0  0  0  0  0  0  0
    8.8701   48.1041  136.4950 O   0  0  0  0  0  0  0  0  0  0  0  0
    9.4879   45.6197  136.0167 N   0  0  0  0  0  0  0  0  0  0  0  0
   10.3089   45.8990  136.5770 H   0  0  0  0  0  0  0  0  0  0  0  0
    9.9571   44.8153  134.9052 C   0  0  0  0  0  0  0  0  0  0  0  0
    8.7607   44.5243  134.0237 C   0  0  0  0  0  0  0  0  0  0  0  0
    9.0850   43.3499  133.1255 C   0  0  0  0  0  0  0  0  0  0  0  0
    8.4738   42.0738  133.6024 C   0  0  0  0  0  0  0  0  0  0  0  0
    8.6790   43.6185  131.7037 C   0  0  0  0  0  0  0  0  0  0  0  0
   10.4745   43.1958  133.1555 O   0  0  0  0  0  0  0  0  0  0  0  0
   10.8949   43.4280  132.2885 H   0  0  0  0  0  0  0  0  0  0  0  0
 17 18  1  0  0  0
 18 19  2  0  0  0
 19 20  1  0  0  0
 20 21  2  0  0  0
 21 22  1  0  0  0
 21  8  1  0  0  0
  8  9  2  0  0  0
  9 10  1  0  0  0
 10 11  2  0  0  0
 11 12  1  0  0  0
 12 13  2  0  0  0
 13 14  1  0  0  0
 10  1  1  0  0  0
  1  2  2  0  0  0
  2  3  1  0  0  0
  3  4  2  0  0  0
  4  5  1  0  0  0
  5  6  2  0  0  0
  6  7  1  0  0  0
  3 23  1  0  0  0
 23 24  2  0  0  0
 23 25  2  0  0  0
 23 26  1  0  0  0
 26 28  1  0  0  0
 28 29  1  0  0  0
 29 30  1  0  0  0
 30 31  1  0  0  0
 30 32  1  0  0  0
 30 33  1  0  0  0
 22 18  1  0  0  0
 13  8  1  0  0  0
  6  1  1  0  0  0
 14 15  1  0  0  0
 14 16  1  0  0  0
 26 27  1  0  0  0
 33 34  1  0  0  0
M  END
> <minimizedAffinity>
15.06048

> <CNNscore>
0.2988163531

> <CNNaffinity>
6.8113961220

> <CNN_VS>
2.0353565216

> <CNNaffinity_variance>
0.4373940527

$$$$
[H]OC(C([H])([H])[H])(C([H])([H])[H])C([H])([H])C([H])([H])N([H])S(=O)(=O)c1c([H])c([H])c(C([H])([H])[H])c(-c2c([H])nc(N([H])[H])c(-c3oc(C([H])([H])[H])nc3[H])c2[H])c1[H]


 34 36  0  0  0  0  0  0  0  0999 V2000
   10.1375   47.3859  131.8236 C   0  0  0  0  0  0  0  0  0  0  0  0
    9.5811   46.9855  133.0340 C   0  0  0  0  0  0  0  0  0  0  0  0
    8.7941   47.8316  133.7860 C   0  0  0  0  0  0  0  0  0  0  0  0
    8.5789   49.0999  133.2868 C   0  0  0  0  0  0  0  0  0  0  0  0
    9.1320   49.4932  132.0869 C   0  0  0  0  0  0  0  0  0  0  0  0
    9.9289   48.6464  131.3192 C   0  0  0  0  0  0  0  0  0  0  0  0
   10.5105   49.1338  130.0300 C   0  0  0  0  0  0  0  0  0  0  0  0
   11.0184   44.6642  129.4426 C   0  0  0  0  0  0  0  0  0  0  0  0
   10.3250   45.5877  130.1911 C   0  0  0  0  0  0  0  0  0  0  0  0
   10.9449   46.4349  131.0850 C   0  0  0  0  0  0  0  0  0  0  0  0
   12.3058   46.3598  131.2388 C   0  0  0  0  0  0  0  0  0  0  0  0
   12.9840   45.4608  130.5108 N   0  0  0  0  0  0  0  0  0  0  0  0
   12.3914   44.6322  129.6390 C   0  0  0  0  0  0  0  0  0  0  0  0
   13.1198   43.6808  128.8703 N   0  0  0  0  0  0  0  0  0  0  0  0
   13.6735   43.9524  128.0357 H   0  0  0  0  0  0  0  0  0  0  0  0
   13.1046   42.6797  129.1429 H   0  0  0  0  0  0  0  0  0  0  0  0
    9.8955   40.5682  126.8506 C   0  0  0  0  0  0  0  0  0  0  0  0
    9.8936   41.9741  127.3805 C   0  0  0  0  0  0  0  0  0  0  0  0
    9.0605   42.9271  126.9670 N   0  0  0  0  0  0  0  0  0  0  0  0
    9.3350   44.0633  127.6517 C   0  0  0  0  0  0  0  0  0  0  0  0
   10.3644   43.7660  128.4953 C   0  0  0  0  0  0  0  0  0  0  0  0
   10.6527   42.5039  128.2860 O   0  0  0  0  0  0  0  0  0  0  0  0
    8.0949   47.3159  135.3158 S   0  0  0  0  0  0  0  0  0  0  0  0
    6.9828   46.3459  135.1189 O   0  0  0  0  0  0  0  0  0  0  0  0
    7.5709   48.5516  135.9931 O   0  0  0  0  0  0  0  0  0  0  0  0
    9.3075   46.6439  136.3505 N   0  0  0  0  0  0  0  0  0  0  0  0
    9.6252   47.3588  137.0242 H   0  0  0  0  0  0  0  0  0  0  0  0
   10.4611   46.1979  135.5936 C   0  0  0  0  0  0  0  0  0  0  0  0
   10.0511   44.9486  134.8426 C   0  0  0  0  0  0  0  0  0  0  0  0
   11.2951   44.1903  134.4322 C   0  0  0  0  0  0  0  0  0  0  0  0
   11.8324   43.3290  135.5271 C   0  0  0  0  0  0  0  0  0  0  0  0
   11.0535   43.3677  133.1978 C   0  0  0  0  0  0  0  0  0  0  0  0
   12.2656   45.1499  134.1278 O   0  0  0  0  0  0  0  0  0  0  0  0
   12.4770   45.1735  133.1597 H   0  0  0  0  0  0  0  0  0  0  0  0
 17 18  1  0  0  0
 18 19  2  0  0  0
 19 20  1  0  0  0
 20 21  2  0  0  0
 21 22  1  0  0  0
 21  8  1  0  0  0
  8  9  2  0  0  0
  9 10  1  0  0  0
 10 11  2  0  0  0
 11 12  1  0  0  0
 12 13  2  0  0  0
 13 14  1  0  0  0
 10  1  1  0  0  0
  1  2  2  0  0  0
  2  3  1  0  0  0
  3  4  2  0  0  0
  4  5  1  0  0  0
  5  6  2  0  0  0
  6  7  1  0  0  0
  3 23  1  0  0  0
 23 24  2  0  0  0
 23 25  2  0  0  0
 23 26  1  0  0  0
 26 28  1  0  0  0
 28 29  1  0  0  0
 29 30  1  0  0  0
 30 31  1  0  0  0
 30 32  1  0  0  0
 30 33  1  0  0  0
 22 18  1  0  0  0
 13  8  1  0  0  0
  6  1  1  0  0  0
 14 15  1  0  0  0
 14 16  1  0  0  0
 26 27  1  0  0  0
 33 34  1  0  0  0
M  END
> <minimizedAffinity>
13.77268

> <CNNscore>
0.2943881452

> <CNNaffinity>
6.9677987099

> <CNN_VS>
2.0512373447

> <CNNaffinity_variance>
0.9223769903

$$$$
[H]OC(C([H])([H])[H])(C([H])([H])[H])C([H])([H])C([H])([H])N([H])S(=O)(=O)c1c([H])c([H])c(C([H])([H])[H])c(-c2c([H])nc(N([H])[H])c(-c3oc(C([H])([H])[H])nc3[H])c2[H])c1[H]


 34 36  0  0  0  0  0  0  0  0999 V2000
    9.7729   47.9950  131.7390 C   0  0  0  0  0  0  0  0  0  0  0  0
    8.8598   48.3775  130.7618 C   0  0  0  0  0  0  0  0  0  0  0  0
    8.2901   49.6328  130.7527 C   0  0  0  0  0  0  0  0  0  0  0  0
    8.6643   50.5007  131.7582 C   0  0  0  0  0  0  0  0  0  0  0  0
    9.5694   50.1181  132.7250 C   0  0  0  0  0  0  0  0  0  0  0  0
   10.1508   48.8519  132.7437 C   0  0  0  0  0  0  0  0  0  0  0  0
   11.1190   48.4908  133.8255 C   0  0  0  0  0  0  0  0  0  0  0  0
   10.1469   44.3343  132.2981 C   0  0  0  0  0  0  0  0  0  0  0  0
    9.6854   45.6307  132.3188 C   0  0  0  0  0  0  0  0  0  0  0  0
   10.3370   46.6610  131.6747 C   0  0  0  0  0  0  0  0  0  0  0  0
   11.4908   46.3900  130.9842 C   0  0  0  0  0  0  0  0  0  0  0  0
   11.9429   45.1279  130.9625 N   0  0  0  0  0  0  0  0  0  0  0  0
   11.3174   44.1186  131.5853 C   0  0  0  0  0  0  0  0  0  0  0  0
   11.8049   42.7813  131.5568 N   0  0  0  0  0  0  0  0  0  0  0  0
   11.6888   42.1686  130.7273 H   0  0  0  0  0  0  0  0  0  0  0  0
   12.2941   42.3947  132.3862 H   0  0  0  0  0  0  0  0  0  0  0  0
    6.5526   41.2084  133.7357 C   0  0  0  0  0  0  0  0  0  0  0  0
    7.8812   41.8946  133.5898 C   0  0  0  0  0  0  0  0  0  0  0  0
    8.9858   41.5288  134.2374 N   0  0  0  0  0  0  0  0  0  0  0  0
    9.9920   42.3590  133.8718 C   0  0  0  0  0  0  0  0  0  0  0  0
    9.4587   43.2416  132.9794 C   0  0  0  0  0  0  0  0  0  0  0  0
    8.1956   42.9119  132.8530 O   0  0  0  0  0  0  0  0  0  0  0  0
    7.1360   50.1072  129.5124 S   0  0  0  0  0  0  0  0  0  0  0  0
    5.8075   49.4671  129.7163 O   0  0  0  0  0  0  0  0  0  0  0  0
    7.7093   49.6678  128.1938 O   0  0  0  0  0  0  0  0  0  0  0  0
    6.9748   51.8284  129.4488 N   0  0  0  0  0  0  0  0  0  0  0  0
    6.3073   52.1422  130.1712 H   0  0  0  0  0  0  0  0  0  0  0  0
    6.4772   52.2660  128.1590 C   0  0  0  0  0  0  0  0  0  0  0  0
    7.6807   52.5580  127.2878 C   0  0  0  0  0  0  0  0  0  0  0  0
    7.4557   53.8657  126.5595 C   0  0  0  0  0  0  0  0  0  0  0  0
    8.7220   54.6226  126.3296 C   0  0  0  0  0  0  0  0  0  0  0  0
    6.7372   53.6513  125.2570 C   0  0  0  0  0  0  0  0  0  0  0  0
    6.6353   54.6446  127.3815 O   0  0  0  0  0  0  0  0  0  0  0  0
    5.7295   54.7663  126.9977 H   0  0  0  0  0  0  0  0  0  0  0  0
 17 18  1  0  0  0
 18 19  2  0  0  0
 19 20  1  0  0  0
 20 21  2  0  0  0
 21 22  1  0  0  0
 21  8  1  0  0  0
  8  9  2  0  0  0
  9 10  1  0  0  0
 10 11  2  0  0  0
 11 12  1  0  0  0
 12 13  2  0  0  0
 13 14  1  0  0  0
 10  1  1  0  0  0
  1  2  2  0  0  0
  2  3  1  0  0  0
  3  4  2  0  0  0
  4  5  1  0  0  0
  5  6  2  0  0  0
  6  7  1  0  0  0
  3 23  1  0  0  0
 23 24  2  0  0  0
 23 25  2  0  0  0
 23 26  1  0  0  0
 26 28  1  0  0  0
 28 29  1  0  0  0
 29 30  1  0  0  0
 30 31  1  0  0  0
 30 32  1  0  0  0
 30 33  1  0  0  0
 22 18  1  0  0  0
 13  8  1  0  0  0
  6  1  1  0  0  0
 14 15  1  0  0  0
 14 16  1  0  0  0
 26 27  1  0  0  0
 33 34  1  0  0  0
M  END
> <minimizedAffinity>
5.77087

> <CNNscore>
0.2575031221

> <CNNaffinity>
6.7240495682

> <CNN_VS>
1.7314637899

> <CNNaffinity_variance>
0.4124012887

$$$$
[H]OC(C([H])([H])[H])(C([H])([H])[H])C([H])([H])C([H])([H])N([H])S(=O)(=O)c1c([H])c([H])c(C([H])([H])[H])c(-c2c([H])nc(N([H])[H])c(-c3oc(C([H])([H])[H])nc3[H])c2[H])c1[H]


 34 36  0  0  0  0  0  0  0  0999 V2000
    9.3226   45.1317  130.1605 C   0  0  0  0  0  0  0  0  0  0  0  0
    9.0409   44.6561  131.4370 C   0  0  0  0  0  0  0  0  0  0  0  0
    9.1136   43.3139  131.7436 C   0  0  0  0  0  0  0  0  0  0  0  0
    9.4793   42.4554  130.7271 C   0  0  0  0  0  0  0  0  0  0  0  0
    9.7576   42.9304  129.4632 C   0  0  0  0  0  0  0  0  0  0  0  0
    9.6870   44.2845  129.1426 C   0  0  0  0  0  0  0  0  0  0  0  0
    9.9902   44.7388  127.7498 C   0  0  0  0  0  0  0  0  0  0  0  0
    7.8338   48.5230  129.7925 C   0  0  0  0  0  0  0  0  0  0  0  0
    8.0029   47.1726  129.9967 C   0  0  0  0  0  0  0  0  0  0  0  0
    9.2349   46.5585  129.9187 C   0  0  0  0  0  0  0  0  0  0  0  0
   10.3394   47.3175  129.6267 C   0  0  0  0  0  0  0  0  0  0  0  0
   10.1776   48.6335  129.4271 N   0  0  0  0  0  0  0  0  0  0  0  0
    8.9845   49.2408  129.5004 C   0  0  0  0  0  0  0  0  0  0  0  0
    8.8223   50.6390  129.2869 N   0  0  0  0  0  0  0  0  0  0  0  0
    9.0777   51.3411  130.0071 H   0  0  0  0  0  0  0  0  0  0  0  0
    8.4370   50.9802  128.3858 H   0  0  0  0  0  0  0  0  0  0  0  0
    4.2310   51.6834  131.1297 C   0  0  0  0  0  0  0  0  0  0  0  0
    4.9800   50.5603  130.4703 C   0  0  0  0  0  0  0  0  0  0  0  0
    4.4405   49.7166  129.5925 N   0  0  0  0  0  0  0  0  0  0  0  0
    5.3933   48.8363  129.2024 C   0  0  0  0  0  0  0  0  0  0  0  0
    6.5303   49.1756  129.8746 C   0  0  0  0  0  0  0  0  0  0  0  0
    6.2189   50.2123  130.6151 O   0  0  0  0  0  0  0  0  0  0  0  0
    8.7554   42.7221  133.3612 S   0  0  0  0  0  0  0  0  0  0  0  0
    7.7532   41.6214  133.3403 O   0  0  0  0  0  0  0  0  0  0  0  0
    8.2079   43.8864  134.1391 O   0  0  0  0  0  0  0  0  0  0  0  0
   10.2004   42.2094  134.1622 N   0  0  0  0  0  0  0  0  0  0  0  0
    9.9568   41.6494  134.9946 H   0  0  0  0  0  0  0  0  0  0  0  0
   10.9927   43.3419  134.6006 C   0  0  0  0  0  0  0  0  0  0  0  0
   12.0530   43.5842  133.5471 C   0  0  0  0  0  0  0  0  0  0  0  0
   12.1775   45.0735  133.3073 C   0  0  0  0  0  0  0  0  0  0  0  0
   13.1714   45.7220  134.2134 C   0  0  0  0  0  0  0  0  0  0  0  0
   12.5131   45.3717  131.8730 C   0  0  0  0  0  0  0  0  0  0  0  0
   10.9235   45.6284  133.5811 O   0  0  0  0  0  0  0  0  0  0  0  0
   10.4773   45.9652  132.7627 H   0  0  0  0  0  0  0  0  0  0  0  0
 17 18  1  0  0  0
 18 19  2  0  0  0
 19 20  1  0  0  0
 20 21  2  0  0  0
 21 22  1  0  0  0
 21  8  1  0  0  0
  8  9  2  0  0  0
  9 10  1  0  0  0
 10 11  2  0  0  0
 11 12  1  0  0  0
 12 13  2  0  0  0
 13 14  1  0  0  0
 10  1  1  0  0  0
  1  2  2  0  0  0
  2  3  1  0  0  0
  3  4  2  0  0  0
  4  5  1  0  0  0
  5  6  2  0  0  0
  6  7  1  0  0  0
  3 23  1  0  0  0
 23 24  2  0  0  0
 23 25  2  0  0  0
 23 26  1  0  0  0
 26 28  1  0  0  0
 28 29  1  0  0  0
 29 30  1  0  0  0
 30 31  1  0  0  0
 30 32  1  0  0  0
 30 33  1  0  0  0
 22 18  1  0  0  0
 13  8  1  0  0  0
  6  1  1  0  0  0
 14 15  1  0  0  0
 14 16  1  0  0  0
 26 27  1  0  0  0
 33 34  1  0  0  0
M  END
> <minimizedAffinity>
5.20985

> <CNNscore>
0.2466215491

> <CNNaffinity>
7.2969522476

> <CNN_VS>
1.7995857000

> <CNNaffinity_variance>
0.6513941884

$$$$
[H]OC1([H])C([H])([H])C([H])([H])N(C([H])([H])C([H])([H])C([H])([H])Oc2c(OC([H])([H])[H])c([H])c3c(Oc4c([H])c([H])c(N([H])C(=O)C5(C(=O)N([H])C6=C([H])C([H])([H])C([H])(F)C([H])=C6[H])C([H])([H])C5([H])[H])c([H])c4F)c([H])c([H])nc3c2[H])C([H])([H])C1([H])[H]


 50 55  0  0  0  0  0  0  0  0999 V2000
    8.3001   47.0736  129.5765 O   0  0  0  0  0  0  0  0  0  0  0  0
   10.8805   46.4440  132.8898 C   0  0  0  0  0  0  0  0  0  0  0  0
   10.0495   46.6572  131.8326 C   0  0  0  0  0  0  0  0  0  0  0  0
   10.2811   46.0998  130.5841 C   0  0  0  0  0  0  0  0  0  0  0  0
    9.4234   46.3200  129.5444 C   0  0  0  0  0  0  0  0  0  0  0  0
    9.7310   45.6964  128.2961 C   0  0  0  0  0  0  0  0  0  0  0  0
   10.8304   44.9267  128.1776 C   0  0  0  0  0  0  0  0  0  0  0  0
   11.6604   44.7219  129.2097 N   0  0  0  0  0  0  0  0  0  0  0  0
   11.4013   45.2944  130.4027 C   0  0  0  0  0  0  0  0  0  0  0  0
   12.2427   45.0833  131.4847 C   0  0  0  0  0  0  0  0  0  0  0  0
   12.0201   45.6267  132.7156 C   0  0  0  0  0  0  0  0  0  0  0  0
    9.3470   47.0887  134.7050 C   0  0  0  0  0  0  0  0  0  0  0  0
   10.6253   47.0124  134.1206 O   0  0  0  0  0  0  0  0  0  0  0  0
   12.8128   45.4289  133.7774 O   0  0  0  0  0  0  0  0  0  0  0  0
   12.9577   44.3116  134.5611 C   0  0  0  0  0  0  0  0  0  0  0  0
   11.9903   43.2395  134.1922 C   0  0  0  0  0  0  0  0  0  0  0  0
   10.5361   43.6190  134.4210 C   0  0  0  0  0  0  0  0  0  0  0  0
    9.6749   42.7645  133.6634 N   0  0  0  0  0  0  0  0  0  0  0  0
    8.5683   43.4484  133.0641 C   0  0  0  0  0  0  0  0  0  0  0  0
    8.1776   42.7246  131.7912 C   0  0  0  0  0  0  0  0  0  0  0  0
    9.3190   42.8685  130.8101 C   0  0  0  0  0  0  0  0  0  0  0  0
    9.0027   42.3111  129.5956 O   0  0  0  0  0  0  0  0  0  0  0  0
   10.5876   42.3225  131.4316 C   0  0  0  0  0  0  0  0  0  0  0  0
   10.3399   41.8124  132.8355 C   0  0  0  0  0  0  0  0  0  0  0  0
    9.7288   41.8474  129.1309 H   0  0  0  0  0  0  0  0  0  0  0  0
    7.9352   48.3267  129.2842 C   0  0  0  0  0  0  0  0  0  0  0  0
    8.6494   49.4653  129.6689 C   0  0  0  0  0  0  0  0  0  0  0  0
    8.2836   50.7500  129.3771 C   0  0  0  0  0  0  0  0  0  0  0  0
    7.1117   50.9743  128.6401 C   0  0  0  0  0  0  0  0  0  0  0  0
    6.3888   49.9007  128.2450 C   0  0  0  0  0  0  0  0  0  0  0  0
    6.7656   48.5934  128.5453 C   0  0  0  0  0  0  0  0  0  0  0  0
    6.0170   47.5589  128.1348 F   0  0  0  0  0  0  0  0  0  0  0  0
    6.7828   52.3094  128.3319 N   0  0  0  0  0  0  0  0  0  0  0  0
    7.1952   52.9798  127.1699 C   0  0  0  0  0  0  0  0  0  0  0  0
    7.9109   52.3216  126.3067 O   0  0  0  0  0  0  0  0  0  0  0  0
    6.1703   52.8138  129.0406 H   0  0  0  0  0  0  0  0  0  0  0  0
    6.9020   54.3889  126.8008 C   0  0  0  0  0  0  0  0  0  0  0  0
    7.2146   55.3866  127.8764 C   0  0  0  0  0  0  0  0  0  0  0  0
    5.7910   54.9886  127.6210 C   0  0  0  0  0  0  0  0  0  0  0  0
    7.0716   54.8854  125.4287 C   0  0  0  0  0  0  0  0  0  0  0  0
    6.1551   55.6201  124.9205 O   0  0  0  0  0  0  0  0  0  0  0  0
    8.2079   54.5929  124.6326 N   0  0  0  0  0  0  0  0  0  0  0  0
    8.9879   54.0214  124.9660 H   0  0  0  0  0  0  0  0  0  0  0  0
    8.2900   55.1162  123.3003 C   0  0  0  0  0  0  0  0  0  0  0  0
    9.0853   56.1189  123.0367 C   0  0  0  0  0  0  0  0  0  0  0  0
    9.2264   56.7110  121.7123 C   0  0  0  0  0  0  0  0  0  0  0  0
    8.4685   56.1061  120.6000 C   0  0  0  0  0  0  0  0  0  0  0  0
    7.6535   57.0961  120.0247 F   0  0  0  0  0  0  0  0  0  0  0  0
    7.5875   54.9820  120.9672 C   0  0  0  0  0  0  0  0  0  0  0  0
    7.5250   54.5489  122.2066 C   0  0  0  0  0  0  0  0  0  0  0  0
 12 13  1  0  0  0
 13  2  1  0  0  0
  2  3  2  0  0  0
  3  4  1  0  0  0
  4  5  2  0  0  0
  5  1  1  0  0  0
  1 26  1  0  0  0
 26 27  2  0  0  0
 27 28  1  0  0  0
 28 29  2  0  0  0
 29 33  1  0  0  0
 33 34  1  0  0  0
 34 35  2  0  0  0
 34 37  1  0  0  0
 37 38  1  0  0  0
 38 39  1  0  0  0
 37 40  1  0  0  0
 40 41  2  0  0  0
 40 42  1  0  0  0
 42 44  1  0  0  0
 44 45  2  0  0  0
 45 46  1  0  0  0
 46 47  1  0  0  0
 47 48  1  0  0  0
 47 49  1  0  0  0
 49 50  2  0  0  0
 29 30  1  0  0  0
 30 31  2  0  0  0
 31 32  1  0  0  0
  5  6  1  0  0  0
  6  7  2  0  0  0
  7  8  1  0  0  0
  8  9  2  0  0  0
  9 10  1  0  0  0
 10 11  2  0  0  0
 11 14  1  0  0  0
 14 15  1  0  0  0
 15 16  1  0  0  0
 16 17  1  0  0  0
 17 18  1  0  0  0
 18 19  1  0  0  0
 19 20  1  0  0  0
 20 21  1  0  0  0
 21 22  1  0  0  0
 21 23  1  0  0  0
 23 24  1  0  0  0
 11  2  1  0  0  0
 24 18  1  0  0  0
  9  4  1  0  0  0
 31 26  1  0  0  0
 39 37  1  0  0  0
 50 44  1  0  0  0
 33 36  1  0  0  0
 42 43  1  0  0  0
 22 25  1  0  0  0
M  END
> <minimizedAffinity>
3.84628

> <CNNscore>
0.3061999679

> <CNNaffinity>
7.8996629715

> <CNN_VS>
2.4188766479

> <CNNaffinity_variance>
0.1278775632

$$$$
[H]OC1([H])C([H])([H])C([H])([H])N(C([H])([H])C([H])([H])C([H])([H])Oc2c(OC([H])([H])[H])c([H])c3c(Oc4c([H])c([H])c(N([H])C(=O)C5(C(=O)N([H])C6=C([H])C([H])([H])C([H])(F)C([H])=C6[H])C([H])([H])C5([H])[H])c([H])c4F)c([H])c([H])nc3c2[H])C([H])([H])C1([H])[H]


 50 55  0  0  0  0  0  0  0  0999 V2000
    7.5585   48.4269  131.5783 O   0  0  0  0  0  0  0  0  0  0  0  0
    8.4748   44.3427  132.2939 C   0  0  0  0  0  0  0  0  0  0  0  0
    8.1690   45.6488  132.0611 C   0  0  0  0  0  0  0  0  0  0  0  0
    8.8169   46.6886  132.7107 C   0  0  0  0  0  0  0  0  0  0  0  0
    8.4986   47.9904  132.4479 C   0  0  0  0  0  0  0  0  0  0  0  0
    9.2251   48.9991  133.1526 C   0  0  0  0  0  0  0  0  0  0  0  0
   10.1810   48.6512  134.0361 C   0  0  0  0  0  0  0  0  0  0  0  0
   10.4796   47.3678  134.2805 N   0  0  0  0  0  0  0  0  0  0  0  0
    9.8146   46.3894  133.6335 C   0  0  0  0  0  0  0  0  0  0  0  0
   10.1190   45.0564  133.8651 C   0  0  0  0  0  0  0  0  0  0  0  0
    9.4872   44.0290  133.2285 C   0  0  0  0  0  0  0  0  0  0  0  0
    8.2339   42.7784  130.4079 C   0  0  0  0  0  0  0  0  0  0  0  0
    7.8127   43.3288  131.6331 O   0  0  0  0  0  0  0  0  0  0  0  0
    9.7709   42.7349  133.4284 O   0  0  0  0  0  0  0  0  0  0  0  0
   10.8500   42.0028  133.0004 C   0  0  0  0  0  0  0  0  0  0  0  0
   11.5640   42.6649  131.8721 C   0  0  0  0  0  0  0  0  0  0  0  0
   12.4337   43.8367  132.2988 C   0  0  0  0  0  0  0  0  0  0  0  0
   12.7425   44.6619  131.1720 N   0  0  0  0  0  0  0  0  0  0  0  0
   13.0282   43.9228  129.9789 C   0  0  0  0  0  0  0  0  0  0  0  0
   12.6309   44.7590  128.7790 C   0  0  0  0  0  0  0  0  0  0  0  0
   11.1274   44.9170  128.8046 C   0  0  0  0  0  0  0  0  0  0  0  0
   10.6804   45.5921  127.6954 O   0  0  0  0  0  0  0  0  0  0  0  0
   10.7099   45.5403  130.1201 C   0  0  0  0  0  0  0  0  0  0  0  0
   11.9059   45.8056  131.0099 C   0  0  0  0  0  0  0  0  0  0  0  0
    9.9381   46.2140  127.8382 H   0  0  0  0  0  0  0  0  0  0  0  0
    7.4602   49.3175  130.5853 C   0  0  0  0  0  0  0  0  0  0  0  0
    6.9020   50.5919  130.7223 C   0  0  0  0  0  0  0  0  0  0  0  0
    6.7949   51.5083  129.7132 C   0  0  0  0  0  0  0  0  0  0  0  0
    7.2700   51.1749  128.4365 C   0  0  0  0  0  0  0  0  0  0  0  0
    7.8200   49.9514  128.2577 C   0  0  0  0  0  0  0  0  0  0  0  0
    7.9265   49.0210  129.2893 C   0  0  0  0  0  0  0  0  0  0  0  0
    8.4773   47.8185  129.0658 F   0  0  0  0  0  0  0  0  0  0  0  0
    7.1709   52.1552  127.4292 N   0  0  0  0  0  0  0  0  0  0  0  0
    7.3294   53.5329  127.6449 C   0  0  0  0  0  0  0  0  0  0  0  0
    7.6083   53.9341  128.8499 O   0  0  0  0  0  0  0  0  0  0  0  0
    6.9731   51.7961  126.4474 H   0  0  0  0  0  0  0  0  0  0  0  0
    7.2138   54.6141  126.6323 C   0  0  0  0  0  0  0  0  0  0  0  0
    8.5203   55.2441  126.2502 C   0  0  0  0  0  0  0  0  0  0  0  0
    7.5880   55.9669  127.1768 C   0  0  0  0  0  0  0  0  0  0  0  0
    6.2106   54.5720  125.5600 C   0  0  0  0  0  0  0  0  0  0  0  0
    5.0363   55.0232  125.7954 O   0  0  0  0  0  0  0  0  0  0  0  0
    6.4784   54.0560  124.2667 N   0  0  0  0  0  0  0  0  0  0  0  0
    7.3919   53.6850  123.9945 H   0  0  0  0  0  0  0  0  0  0  0  0
    5.4382   54.0496  123.2801 C   0  0  0  0  0  0  0  0  0  0  0  0
    4.1859   54.1227  123.6460 C   0  0  0  0  0  0  0  0  0  0  0  0
    3.0695   54.1201  122.7088 C   0  0  0  0  0  0  0  0  0  0  0  0
    3.3777   54.0883  121.2661 C   0  0  0  0  0  0  0  0  0  0  0  0
    2.7507   52.9650  120.7003 F   0  0  0  0  0  0  0  0  0  0  0  0
    4.8092   54.0017  120.9227 C   0  0  0  0  0  0  0  0  0  0  0  0
    5.7297   53.9865  121.8608 C   0  0  0  0  0  0  0  0  0  0  0  0
 12 13  1  0  0  0
 13  2  1  0  0  0
  2  3  2  0  0  0
  3  4  1  0  0  0
  4  5  2  0  0  0
  5  1  1  0  0  0
  1 26  1  0  0  0
 26 27  2  0  0  0
 27 28  1  0  0  0
 28 29  2  0  0  0
 29 33  1  0  0  0
 33 34  1  0  0  0
 34 35  2  0  0  0
 34 37  1  0  0  0
 37 38  1  0  0  0
 38 39  1  0  0  0
 37 40  1  0  0  0
 40 41  2  0  0  0
 40 42  1  0  0  0
 42 44  1  0  0  0
 44 45  2  0  0  0
 45 46  1  0  0  0
 46 47  1  0  0  0
 47 48  1  0  0  0
 47 49  1  0  0  0
 49 50  2  0  0  0
 29 30  1  0  0  0
 30 31  2  0  0  0
 31 32  1  0  0  0
  5  6  1  0  0  0
  6  7  2  0  0  0
  7  8  1  0  0  0
  8  9  2  0  0  0
  9 10  1  0  0  0
 10 11  2  0  0  0
 11 14  1  0  0  0
 14 15  1  0  0  0
 15 16  1  0  0  0
 16 17  1  0  0  0
 17 18  1  0  0  0
 18 19  1  0  0  0
 19 20  1  0  0  0
 20 21  1  0  0  0
 21 22  1  0  0  0
 21 23  1  0  0  0
 23 24  1  0  0  0
 11  2  1  0  0  0
 24 18  1  0  0  0
  9  4  1  0  0  0
 31 26  1  0  0  0
 39 37  1  0  0  0
 50 44  1  0  0  0
 33 36  1  0  0  0
 42 43  1  0  0  0
 22 25  1  0  0  0
M  END
> <minimizedAffinity>
1.70592

> <CNNscore>
0.2487213165

> <CNNaffinity>
7.6697912216

> <CNN_VS>
1.9076405764

> <CNNaffinity_variance>
0.4935289025

$$$$
[H]OC1([H])C([H])([H])C([H])([H])N(C([H])([H])C([H])([H])C([H])([H])Oc2c(OC([H])([H])[H])c([H])c3c(Oc4c([H])c([H])c(N([H])C(=O)C5(C(=O)N([H])C6=C([H])C([H])([H])C([H])(F)C([H])=C6[H])C([H])([H])C5([H])[H])c([H])c4F)c([H])c([H])nc3c2[H])C([H])([H])C1([H])[H]


 50 55  0  0  0  0  0  0  0  0999 V2000
    8.3154   47.6049  129.8691 O   0  0  0  0  0  0  0  0  0  0  0  0
   10.7941   46.5400  133.1484 C   0  0  0  0  0  0  0  0  0  0  0  0
    9.9959   46.8922  132.1033 C   0  0  0  0  0  0  0  0  0  0  0  0
   10.2484   46.4755  130.8050 C   0  0  0  0  0  0  0  0  0  0  0  0
    9.4230   46.8334  129.7774 C   0  0  0  0  0  0  0  0  0  0  0  0
    9.7501   46.3490  128.4734 C   0  0  0  0  0  0  0  0  0  0  0  0
   10.8359   45.5719  128.2935 C   0  0  0  0  0  0  0  0  0  0  0  0
   11.6341   45.2309  129.3147 N   0  0  0  0  0  0  0  0  0  0  0  0
   11.3558   45.6695  130.5589 C   0  0  0  0  0  0  0  0  0  0  0  0
   12.1639   45.3164  131.6292 C   0  0  0  0  0  0  0  0  0  0  0  0
   11.9205   45.7210  132.9087 C   0  0  0  0  0  0  0  0  0  0  0  0
    9.2943   46.7529  135.0893 C   0  0  0  0  0  0  0  0  0  0  0  0
   10.5188   46.9701  134.4299 O   0  0  0  0  0  0  0  0  0  0  0  0
   12.6808   45.3845  133.9592 O   0  0  0  0  0  0  0  0  0  0  0  0
   12.6710   44.2356  134.7101 C   0  0  0  0  0  0  0  0  0  0  0  0
   11.8514   43.1619  134.0804 C   0  0  0  0  0  0  0  0  0  0  0  0
   10.3521   43.3812  134.2043 C   0  0  0  0  0  0  0  0  0  0  0  0
    9.6491   42.5312  133.2937 N   0  0  0  0  0  0  0  0  0  0  0  0
    8.4696   43.1286  132.7431 C   0  0  0  0  0  0  0  0  0  0  0  0
    8.2263   42.5493  131.3641 C   0  0  0  0  0  0  0  0  0  0  0  0
    9.3598   42.9971  130.4692 C   0  0  0  0  0  0  0  0  0  0  0  0
    9.1635   42.5827  129.1747 O   0  0  0  0  0  0  0  0  0  0  0  0
   10.6782   42.5546  131.0689 C   0  0  0  0  0  0  0  0  0  0  0  0
   10.4712   41.8153  132.3739 C   0  0  0  0  0  0  0  0  0  0  0  0
    9.9630   42.3009  128.6854 H   0  0  0  0  0  0  0  0  0  0  0  0
    7.9125   48.8167  129.4715 C   0  0  0  0  0  0  0  0  0  0  0  0
    7.3256   49.0842  128.2312 C   0  0  0  0  0  0  0  0  0  0  0  0
    6.9127   50.3193  127.8146 C   0  0  0  0  0  0  0  0  0  0  0  0
    7.0768   51.4175  128.6712 C   0  0  0  0  0  0  0  0  0  0  0  0
    7.6397   51.2051  129.8834 C   0  0  0  0  0  0  0  0  0  0  0  0
    8.0591   49.9445  130.3030 C   0  0  0  0  0  0  0  0  0  0  0  0
    8.6142   49.7808  131.5131 F   0  0  0  0  0  0  0  0  0  0  0  0
    6.6117   52.6690  128.2206 N   0  0  0  0  0  0  0  0  0  0  0  0
    7.2033   53.4090  127.1852 C   0  0  0  0  0  0  0  0  0  0  0  0
    8.2373   52.8990  126.5839 O   0  0  0  0  0  0  0  0  0  0  0  0
    5.7458   53.0477  128.7092 H   0  0  0  0  0  0  0  0  0  0  0  0
    6.7755   54.7401  126.6823 C   0  0  0  0  0  0  0  0  0  0  0  0
    6.9498   55.8574  127.6678 C   0  0  0  0  0  0  0  0  0  0  0  0
    5.5838   55.2884  127.4211 C   0  0  0  0  0  0  0  0  0  0  0  0
    6.9333   55.1275  125.2741 C   0  0  0  0  0  0  0  0  0  0  0  0
    5.9440   55.6679  124.6681 O   0  0  0  0  0  0  0  0  0  0  0  0
    8.1348   54.9348  124.5463 N   0  0  0  0  0  0  0  0  0  0  0  0
    8.9735   54.5186  124.9581 H   0  0  0  0  0  0  0  0  0  0  0  0
    8.2004   55.3392  123.1723 C   0  0  0  0  0  0  0  0  0  0  0  0
    8.9601   56.3418  122.8187 C   0  0  0  0  0  0  0  0  0  0  0  0
    9.0822   56.8175  121.4463 C   0  0  0  0  0  0  0  0  0  0  0  0
    8.3480   56.0890  120.3939 C   0  0  0  0  0  0  0  0  0  0  0  0
    7.4993   56.9940  119.7336 F   0  0  0  0  0  0  0  0  0  0  0  0
    7.5067   54.9718  120.8617 C   0  0  0  0  0  0  0  0  0  0  0  0
    7.4577   54.6495  122.1351 C   0  0  0  0  0  0  0  0  0  0  0  0
 12 13  1  0  0  0
 13  2  1  0  0  0
  2  3  2  0  0  0
  3  4  1  0  0  0
  4  5  2  0  0  0
  5  1  1  0  0  0
  1 26  1  0  0  0
 26 27  2  0  0  0
 27 28  1  0  0  0
 28 29  2  0  0  0
 29 33  1  0  0  0
 33 34  1  0  0  0
 34 35  2  0  0  0
 34 37  1  0  0  0
 37 38  1  0  0  0
 38 39  1  0  0  0
 37 40  1  0  0  0
 40 41  2  0  0  0
 40 42  1  0  0  0
 42 44  1  0  0  0
 44 45  2  0  0  0
 45 46  1  0  0  0
 46 47  1  0  0  0
 47 48  1  0  0  0
 47 49  1  0  0  0
 49 50  2  0  0  0
 29 30  1  0  0  0
 30 31  2  0  0  0
 31 32  1  0  0  0
  5  6  1  0  0  0
  6  7  2  0  0  0
  7  8  1  0  0  0
  8  9  2  0  0  0
  9 10  1  0  0  0
 10 11  2  0  0  0
 11 14  1  0  0  0
 14 15  1  0  0  0
 15 16  1  0  0  0
 16 17  1  0  0  0
 17 18  1  0  0  0
 18 19  1  0  0  0
 19 20  1  0  0  0
 20 21  1  0  0  0
 21 22  1  0  0  0
 21 23  1  0  0  0
 23 24  1  0  0  0
 11  2  1  0  0  0
 24 18  1  0  0  0
  9  4  1  0  0  0
 31 26  1  0  0  0
 39 37  1  0  0  0
 50 44  1  0  0  0
 33 36  1  0  0  0
 42 43  1  0  0  0
 22 25  1  0  0  0
M  END
> <minimizedAffinity>
3.15808

> <CNNscore>
0.2458309978

> <CNNaffinity>
7.8558082581

> <CNN_VS>
1.9312012196

> <CNNaffinity_variance>
0.1561952531

$$$$
[H]OC1([H])C([H])([H])C([H])([H])N(C([H])([H])C([H])([H])C([H])([H])Oc2c(OC([H])([H])[H])c([H])c3c(Oc4c([H])c([H])c(N([H])C(=O)C5(C(=O)N([H])C6=C([H])C([H])([H])C([H])(F)C([H])=C6[H])C([H])([H])C5([H])[H])c([H])c4F)c([H])c([H])nc3c2[H])C([H])([H])C1([H])[H]


 50 55  0  0  0  0  0  0  0  0999 V2000
    7.8720   49.0339  131.1696 O   0  0  0  0  0  0  0  0  0  0  0  0
   10.2296   45.7682  129.8244 C   0  0  0  0  0  0  0  0  0  0  0  0
    9.4635   46.8104  130.2493 C   0  0  0  0  0  0  0  0  0  0  0  0
    9.7291   47.4934  131.4266 C   0  0  0  0  0  0  0  0  0  0  0  0
    8.9513   48.5440  131.8221 C   0  0  0  0  0  0  0  0  0  0  0  0
    9.3042   49.1996  133.0417 C   0  0  0  0  0  0  0  0  0  0  0  0
   10.3671   48.7768  133.7536 C   0  0  0  0  0  0  0  0  0  0  0  0
   11.1189   47.7437  133.3490 N   0  0  0  0  0  0  0  0  0  0  0  0
   10.8156   47.1017  132.2028 C   0  0  0  0  0  0  0  0  0  0  0  0
   11.5899   46.0386  131.7629 C   0  0  0  0  0  0  0  0  0  0  0  0
   11.3357   45.3637  130.6054 C   0  0  0  0  0  0  0  0  0  0  0  0
    9.3375   43.8365  128.5855 C   0  0  0  0  0  0  0  0  0  0  0  0
    9.9410   45.1066  128.6488 O   0  0  0  0  0  0  0  0  0  0  0  0
   12.0750   44.3410  130.1555 O   0  0  0  0  0  0  0  0  0  0  0  0
   12.9064   43.4958  130.8469 C   0  0  0  0  0  0  0  0  0  0  0  0
   12.3251   43.0860  132.1566 C   0  0  0  0  0  0  0  0  0  0  0  0
   10.9735   42.3995  132.0409 C   0  0  0  0  0  0  0  0  0  0  0  0
   10.1653   42.6989  133.1824 N   0  0  0  0  0  0  0  0  0  0  0  0
   10.7273   43.7002  134.0384 C   0  0  0  0  0  0  0  0  0  0  0  0
    9.6002   44.4435  134.7268 C   0  0  0  0  0  0  0  0  0  0  0  0
    8.8342   45.2032  133.6675 C   0  0  0  0  0  0  0  0  0  0  0  0
    7.8460   45.9751  134.2273 O   0  0  0  0  0  0  0  0  0  0  0  0
    8.3420   44.2351  132.6120 C   0  0  0  0  0  0  0  0  0  0  0  0
    8.7677   42.8157  132.9226 C   0  0  0  0  0  0  0  0  0  0  0  0
    7.0073   46.0335  133.7259 H   0  0  0  0  0  0  0  0  0  0  0  0
    7.6058   49.9695  130.2517 C   0  0  0  0  0  0  0  0  0  0  0  0
    7.3559   51.3132  130.5458 C   0  0  0  0  0  0  0  0  0  0  0  0
    7.0806   52.2765  129.6154 C   0  0  0  0  0  0  0  0  0  0  0  0
    7.0383   51.9217  128.2591 C   0  0  0  0  0  0  0  0  0  0  0  0
    7.2755   50.6313  127.9275 C   0  0  0  0  0  0  0  0  0  0  0  0
    7.5553   49.6534  128.8796 C   0  0  0  0  0  0  0  0  0  0  0  0
    7.7821   48.3855  128.5053 F   0  0  0  0  0  0  0  0  0  0  0  0
    6.7821   52.9465  127.3266 N   0  0  0  0  0  0  0  0  0  0  0  0
    7.4518   54.1795  127.2991 C   0  0  0  0  0  0  0  0  0  0  0  0
    8.3876   54.3857  128.1781 O   0  0  0  0  0  0  0  0  0  0  0  0
    6.0335   52.7385  126.5997 H   0  0  0  0  0  0  0  0  0  0  0  0
    7.2115   55.3051  126.3594 C   0  0  0  0  0  0  0  0  0  0  0  0
    8.4214   56.1476  126.0833 C   0  0  0  0  0  0  0  0  0  0  0  0
    7.3584   56.6534  127.0131 C   0  0  0  0  0  0  0  0  0  0  0  0
    6.2652   55.1968  125.2411 C   0  0  0  0  0  0  0  0  0  0  0  0
    5.4847   56.1809  124.9955 O   0  0  0  0  0  0  0  0  0  0  0  0
    6.1724   54.0508  124.4114 N   0  0  0  0  0  0  0  0  0  0  0  0
    6.7649   53.2261  124.5343 H   0  0  0  0  0  0  0  0  0  0  0  0
    5.2163   54.0282  123.3433 C   0  0  0  0  0  0  0  0  0  0  0  0
    3.9367   54.0465  123.6073 C   0  0  0  0  0  0  0  0  0  0  0  0
    2.9004   54.0238  122.5824 C   0  0  0  0  0  0  0  0  0  0  0  0
    3.3250   54.0361  121.1693 C   0  0  0  0  0  0  0  0  0  0  0  0
    2.7897   52.9034  120.5324 F   0  0  0  0  0  0  0  0  0  0  0  0
    4.7818   54.0103  120.9420 C   0  0  0  0  0  0  0  0  0  0  0  0
    5.6236   54.0081  121.9515 C   0  0  0  0  0  0  0  0  0  0  0  0
 12 13  1  0  0  0
 13  2  1  0  0  0
  2  3  2  0  0  0
  3  4  1  0  0  0
  4  5  2  0  0  0
  5  1  1  0  0  0
  1 26  1  0  0  0
 26 27  2  0  0  0
 27 28  1  0  0  0
 28 29  2  0  0  0
 29 33  1  0  0  0
 33 34  1  0  0  0
 34 35  2  0  0  0
 34 37  1  0  0  0
 37 38  1  0  0  0
 38 39  1  0  0  0
 37 40  1  0  0  0
 40 41  2  0  0  0
 40 42  1  0  0  0
 42 44  1  0  0  0
 44 45  2  0  0  0
 45 46  1  0  0  0
 46 47  1  0  0  0
 47 48  1  0  0  0
 47 49  1  0  0  0
 49 50  2  0  0  0
 29 30  1  0  0  0
 30 31  2  0  0  0
 31 32  1  0  0  0
  5  6  1  0  0  0
  6  7  2  0  0  0
  7  8  1  0  0  0
  8  9  2  0  0  0
  9 10  1  0  0  0
 10 11  2  0  0  0
 11 14  1  0  0  0
 14 15  1  0  0  0
 15 16  1  0  0  0
 16 17  1  0  0  0
 17 18  1  0  0  0
 18 19  1  0  0  0
 19 20  1  0  0  0
 20 21  1  0  0  0
 21 22  1  0  0  0
 21 23  1  0  0  0
 23 24  1  0  0  0
 11  2  1  0  0  0
 24 18  1  0  0  0
  9  4  1  0  0  0
 31 26  1  0  0  0
 39 37  1  0  0  0
 50 44  1  0  0  0
 33 36  1  0  0  0
 42 43  1  0  0  0
 22 25  1  0  0  0
M  END
> <minimizedAffinity>
2.38064

> <CNNscore>
0.2442963570

> <CNNaffinity>
7.5672483444

> <CNN_VS>
1.8486511707

> <CNNaffinity_variance>
0.3831260502

$$$$
[H]OC1([H])C([H])([H])C([H])([H])N(C([H])([H])C([H])([H])C([H])([H])Oc2c(OC([H])([H])[H])c([H])c3c(Oc4c([H])c([H])c(N([H])C(=O)C5(C(=O)N([H])C6=C([H])C([H])([H])C([H])(F)C([H])=C6[H])C([H])([H])C5([H])[H])c([H])c4F)c([H])c([H])nc3c2[H])C([H])([H])C1([H])[H]


 50 55  0  0  0  0  0  0  0  0999 V2000
    8.4814   47.9950  130.2866 O   0  0  0  0  0  0  0  0  0  0  0  0
   10.8017   46.5624  133.5418 C   0  0  0  0  0  0  0  0  0  0  0  0
   10.0547   47.0322  132.5051 C   0  0  0  0  0  0  0  0  0  0  0  0
   10.3179   46.6897  131.1873 C   0  0  0  0  0  0  0  0  0  0  0  0
    9.5438   47.1656  130.1678 C   0  0  0  0  0  0  0  0  0  0  0  0
    9.8775   46.7516  128.8415 C   0  0  0  0  0  0  0  0  0  0  0  0
   10.9202   45.9239  128.6339 C   0  0  0  0  0  0  0  0  0  0  0  0
   11.6684   45.4669  129.6475 N   0  0  0  0  0  0  0  0  0  0  0  0
   11.3822   45.8365  130.9122 C   0  0  0  0  0  0  0  0  0  0  0  0
   12.1382   45.3633  131.9742 C   0  0  0  0  0  0  0  0  0  0  0  0
   11.8840   45.6946  133.2725 C   0  0  0  0  0  0  0  0  0  0  0  0
    9.3235   46.5867  135.5107 C   0  0  0  0  0  0  0  0  0  0  0  0
   10.5169   46.9209  134.8431 O   0  0  0  0  0  0  0  0  0  0  0  0
   12.5938   45.2423  134.3149 O   0  0  0  0  0  0  0  0  0  0  0  0
   12.6402   43.9823  134.8572 C   0  0  0  0  0  0  0  0  0  0  0  0
   11.4697   43.1542  134.4504 C   0  0  0  0  0  0  0  0  0  0  0  0
   11.5940   42.5571  133.0578 C   0  0  0  0  0  0  0  0  0  0  0  0
   10.3049   42.1911  132.5577 N   0  0  0  0  0  0  0  0  0  0  0  0
    9.2635   43.1003  132.9318 C   0  0  0  0  0  0  0  0  0  0  0  0
    8.1948   43.0884  131.8573 C   0  0  0  0  0  0  0  0  0  0  0  0
    8.8006   43.6661  130.5981 C   0  0  0  0  0  0  0  0  0  0  0  0
    7.8639   43.7704  129.5993 O   0  0  0  0  0  0  0  0  0  0  0  0
   10.0272   42.8639  130.2168 C   0  0  0  0  0  0  0  0  0  0  0  0
   10.2838   41.7443  131.2033 C   0  0  0  0  0  0  0  0  0  0  0  0
    8.1758   43.5748  128.6924 H   0  0  0  0  0  0  0  0  0  0  0  0
    8.0412   49.1314  129.7355 C   0  0  0  0  0  0  0  0  0  0  0  0
    8.1810   50.3950  130.3172 C   0  0  0  0  0  0  0  0  0  0  0  0
    7.7326   51.5618  129.7632 C   0  0  0  0  0  0  0  0  0  0  0  0
    7.0807   51.5206  128.5221 C   0  0  0  0  0  0  0  0  0  0  0  0
    6.9241   50.3183  127.9210 C   0  0  0  0  0  0  0  0  0  0  0  0
    7.3826   49.1320  128.4900 C   0  0  0  0  0  0  0  0  0  0  0  0
    7.2034   47.9619  127.8592 F   0  0  0  0  0  0  0  0  0  0  0  0
    6.6598   52.7457  127.9676 N   0  0  0  0  0  0  0  0  0  0  0  0
    7.4191   53.5128  127.0705 C   0  0  0  0  0  0  0  0  0  0  0  0
    8.5806   53.0550  126.7070 O   0  0  0  0  0  0  0  0  0  0  0  0
    5.6927   53.0808  128.2581 H   0  0  0  0  0  0  0  0  0  0  0  0
    7.0417   54.8192  126.4717 C   0  0  0  0  0  0  0  0  0  0  0  0
    8.1246   55.8560  126.5198 C   0  0  0  0  0  0  0  0  0  0  0  0
    6.9793   55.9304  127.4858 C   0  0  0  0  0  0  0  0  0  0  0  0
    6.1463   54.9137  125.3110 C   0  0  0  0  0  0  0  0  0  0  0  0
    5.5955   56.0382  125.0464 O   0  0  0  0  0  0  0  0  0  0  0  0
    5.8603   53.8160  124.4603 N   0  0  0  0  0  0  0  0  0  0  0  0
    6.2655   52.8868  124.5966 H   0  0  0  0  0  0  0  0  0  0  0  0
    4.9704   53.9961  123.3507 C   0  0  0  0  0  0  0  0  0  0  0  0
    3.7053   54.2488  123.5581 C   0  0  0  0  0  0  0  0  0  0  0  0
    2.7347   54.4429  122.4881 C   0  0  0  0  0  0  0  0  0  0  0  0
    3.2231   54.4053  121.0962 C   0  0  0  0  0  0  0  0  0  0  0  0
    2.5178   53.4071  120.4024 F   0  0  0  0  0  0  0  0  0  0  0  0
    4.6589   54.1113  120.9331 C   0  0  0  0  0  0  0  0  0  0  0  0
    5.4347   53.9295  121.9784 C   0  0  0  0  0  0  0  0  0  0  0  0
 12 13  1  0  0  0
 13  2  1  0  0  0
  2  3  2  0  0  0
  3  4  1  0  0  0
  4  5  2  0  0  0
  5  1  1  0  0  0
  1 26  1  0  0  0
 26 27  2  0  0  0
 27 28  1  0  0  0
 28 29  2  0  0  0
 29 33  1  0  0  0
 33 34  1  0  0  0
 34 35  2  0  0  0
 34 37  1  0  0  0
 37 38  1  0  0  0
 38 39  1  0  0  0
 37 40  1  0  0  0
 40 41  2  0  0  0
 40 42  1  0  0  0
 42 44  1  0  0  0
 44 45  2  0  0  0
 45 46  1  0  0  0
 46 47  1  0  0  0
 47 48  1  0  0  0
 47 49  1  0  0  0
 49 50  2  0  0  0
 29 30  1  0  0  0
 30 31  2  0  0  0
 31 32  1  0  0  0
  5  6  1  0  0  0
  6  7  2  0  0  0
  7  8  1  0  0  0
  8  9  2  0  0  0
  9 10  1  0  0  0
 10 11  2  0  0  0
 11 14  1  0  0  0
 14 15  1  0  0  0
 15 16  1  0  0  0
 16 17  1  0  0  0
 17 18  1  0  0  0
 18 19  1  0  0  0
 19 20  1  0  0  0
 20 21  1  0  0  0
 21 22  1  0  0  0
 21 23  1  0  0  0
 23 24  1  0  0  0
 11  2  1  0  0  0
 24 18  1  0  0  0
  9  4  1  0  0  0
 31 26  1  0  0  0
 39 37  1  0  0  0
 50 44  1  0  0  0
 33 36  1  0  0  0
 42 43  1  0  0  0
 22 25  1  0  0  0
M  END
> <minimizedAffinity>
6.37755

> <CNNscore>
0.2340313047

> <CNNaffinity>
7.6723914146

> <CNN_VS>
1.7955797911

> <CNNaffinity_variance>
0.3756222129

$$$$
[H]OC1([H])C([H])([H])C([H])([H])N(C([H])([H])C([H])([H])C([H])([H])Oc2c(OC([H])([H])[H])c([H])c3c(Oc4c([H])c([H])c(N([H])C(=O)C5(C(=O)N([H])C6=C([H])C([H])([H])C([H])(F)C([H])=C6[H])C([H])([H])C5([H])[H])c([H])c4F)c([H])c([H])nc3c2[H])C([H])([H])C1([H])[H]


 50 55  0  0  0  0  0  0  0  0999 V2000
    7.0559   46.3575  129.8134 O   0  0  0  0  0  0  0  0  0  0  0  0
    8.6363   44.3820  133.2239 C   0  0  0  0  0  0  0  0  0  0  0  0
    8.1280   45.0261  132.1375 C   0  0  0  0  0  0  0  0  0  0  0  0
    8.4656   44.6706  130.8404 C   0  0  0  0  0  0  0  0  0  0  0  0
    7.9302   45.3260  129.7684 C   0  0  0  0  0  0  0  0  0  0  0  0
    8.3226   44.8858  128.4668 C   0  0  0  0  0  0  0  0  0  0  0  0
    9.1883   43.8624  128.3316 C   0  0  0  0  0  0  0  0  0  0  0  0
    9.7031   43.2311  129.3959 N   0  0  0  0  0  0  0  0  0  0  0  0
    9.3550   43.6194  130.6392 C   0  0  0  0  0  0  0  0  0  0  0  0
    9.8685   42.9694  131.7515 C   0  0  0  0  0  0  0  0  0  0  0  0
    9.5394   43.3126  133.0298 C   0  0  0  0  0  0  0  0  0  0  0  0
    7.9197   46.0680  134.8689 C   0  0  0  0  0  0  0  0  0  0  0  0
    8.2829   44.7581  134.5033 O   0  0  0  0  0  0  0  0  0  0  0  0
   10.0146   42.6933  134.1187 O   0  0  0  0  0  0  0  0  0  0  0  0
   11.1623   42.9389  134.8303 C   0  0  0  0  0  0  0  0  0  0  0  0
   11.7260   44.2868  134.5359 C   0  0  0  0  0  0  0  0  0  0  0  0
   12.4472   44.3727  133.2003 C   0  0  0  0  0  0  0  0  0  0  0  0
   12.4631   45.7237  132.7307 N   0  0  0  0  0  0  0  0  0  0  0  0
   11.6765   45.9321  131.5521 C   0  0  0  0  0  0  0  0  0  0  0  0
   11.1649   47.3587  131.5517 C   0  0  0  0  0  0  0  0  0  0  0  0
   10.2027   47.5038  132.7088 C   0  0  0  0  0  0  0  0  0  0  0  0
    9.6272   48.7506  132.7223 O   0  0  0  0  0  0  0  0  0  0  0  0
   10.9064   47.1316  133.9972 C   0  0  0  0  0  0  0  0  0  0  0  0
   12.3413   46.7200  133.7440 C   0  0  0  0  0  0  0  0  0  0  0  0
    9.4822   49.1500  133.6041 H   0  0  0  0  0  0  0  0  0  0  0  0
    7.0513   47.6686  129.5491 C   0  0  0  0  0  0  0  0  0  0  0  0
    8.1844   48.4860  129.5971 C   0  0  0  0  0  0  0  0  0  0  0  0
    8.1897   49.8272  129.3311 C   0  0  0  0  0  0  0  0  0  0  0  0
    6.9864   50.4575  128.9821 C   0  0  0  0  0  0  0  0  0  0  0  0
    5.8636   49.7045  128.9217 C   0  0  0  0  0  0  0  0  0  0  0  0
    5.8635   48.3381  129.1942 C   0  0  0  0  0  0  0  0  0  0  0  0
    4.7258   47.6311  129.1241 F   0  0  0  0  0  0  0  0  0  0  0  0
    7.0356   51.8340  128.6849 N   0  0  0  0  0  0  0  0  0  0  0  0
    7.2787   52.3613  127.4072 C   0  0  0  0  0  0  0  0  0  0  0  0
    7.4488   51.5268  126.4246 O   0  0  0  0  0  0  0  0  0  0  0  0
    6.8619   52.4934  129.5015 H   0  0  0  0  0  0  0  0  0  0  0  0
    7.3660   53.7974  127.0360 C   0  0  0  0  0  0  0  0  0  0  0  0
    7.7780   54.7014  128.1598 C   0  0  0  0  0  0  0  0  0  0  0  0
    6.3394   54.6457  127.7383 C   0  0  0  0  0  0  0  0  0  0  0  0
    7.8017   54.2313  125.7020 C   0  0  0  0  0  0  0  0  0  0  0  0
    9.0383   54.1222  125.3907 O   0  0  0  0  0  0  0  0  0  0  0  0
    6.9162   54.7667  124.7325 N   0  0  0  0  0  0  0  0  0  0  0  0
    5.9131   54.8792  124.8979 H   0  0  0  0  0  0  0  0  0  0  0  0
    7.4279   55.1695  123.4552 C   0  0  0  0  0  0  0  0  0  0  0  0
    8.2832   56.1538  123.3714 C   0  0  0  0  0  0  0  0  0  0  0  0
    8.8496   56.6265  122.1143 C   0  0  0  0  0  0  0  0  0  0  0  0
    8.4753   55.9156  120.8765 C   0  0  0  0  0  0  0  0  0  0  0  0
    7.9038   56.8405  119.9859 F   0  0  0  0  0  0  0  0  0  0  0  0
    7.5036   54.8187  121.0414 C   0  0  0  0  0  0  0  0  0  0  0  0
    7.0417   54.4976  122.2294 C   0  0  0  0  0  0  0  0  0  0  0  0
 12 13  1  0  0  0
 13  2  1  0  0  0
  2  3  2  0  0  0
  3  4  1  0  0  0
  4  5  2  0  0  0
  5  1  1  0  0  0
  1 26  1  0  0  0
 26 27  2  0  0  0
 27 28  1  0  0  0
 28 29  2  0  0  0
 29 33  1  0  0  0
 33 34  1  0  0  0
 34 35  2  0  0  0
 34 37  1  0  0  0
 37 38  1  0  0  0
 38 39  1  0  0  0
 37 40  1  0  0  0
 40 41  2  0  0  0
 40 42  1  0  0  0
 42 44  1  0  0  0
 44 45  2  0  0  0
 45 46  1  0  0  0
 46 47  1  0  0  0
 47 48  1  0  0  0
 47 49  1  0  0  0
 49 50  2  0  0  0
 29 30  1  0  0  0
 30 31  2  0  0  0
 31 32  1  0  0  0
  5  6  1  0  0  0
  6  7  2  0  0  0
  7  8  1  0  0  0
  8  9  2  0  0  0
  9 10  1  0  0  0
 10 11  2  0  0  0
 11 14  1  0  0  0
 14 15  1  0  0  0
 15 16  1  0  0  0
 16 17  1  0  0  0
 17 18  1  0  0  0
 18 19  1  0  0  0
 19 20  1  0  0  0
 20 21  1  0  0  0
 21 22  1  0  0  0
 21 23  1  0  0  0
 23 24  1  0  0  0
 11  2  1  0  0  0
 24 18  1  0  0  0
  9  4  1  0  0  0
 31 26  1  0  0  0
 39 37  1  0  0  0
 50 44  1  0  0  0
 33 36  1  0  0  0
 42 43  1  0  0  0
 22 25  1  0  0  0
M  END
> <minimizedAffinity>
3.97094

> <CNNscore>
0.2294360399

> <CNNaffinity>
7.7172408104

> <CNN_VS>
1.7706131935

> <CNNaffinity_variance>
0.2261912078

$$$$
[H]OC1([H])C([H])([H])C([H])([H])N(C([H])([H])C([H])([H])C([H])([H])Oc2c(OC([H])([H])[H])c([H])c3c(Oc4c([H])c([H])c(N([H])C(=O)C5(C(=O)N([H])C6=C([H])C([H])([H])C([H])(F)C([H])=C6[H])C([H])([H])C5([H])[H])c([H])c4F)c([H])c([H])nc3c2[H])C([H])([H])C1([H])[H]


 50 55  0  0  0  0  0  0  0  0999 V2000
    7.9804   49.0350  131.1356 O   0  0  0  0  0  0  0  0  0  0  0  0
   10.2047   46.6849  133.8855 C   0  0  0  0  0  0  0  0  0  0  0  0
    9.5011   47.4471  133.0038 C   0  0  0  0  0  0  0  0  0  0  0  0
    8.5777   46.9013  132.1249 C   0  0  0  0  0  0  0  0  0  0  0  0
    7.8763   47.6917  131.2597 C   0  0  0  0  0  0  0  0  0  0  0  0
    6.9354   47.0481  130.3982 C   0  0  0  0  0  0  0  0  0  0  0  0
    6.7672   45.7127  130.4580 C   0  0  0  0  0  0  0  0  0  0  0  0
    7.4648   44.9534  131.3142 N   0  0  0  0  0  0  0  0  0  0  0  0
    8.3611   45.5268  132.1423 C   0  0  0  0  0  0  0  0  0  0  0  0
    9.0827   44.7580  133.0431 C   0  0  0  0  0  0  0  0  0  0  0  0
    9.9909   45.2883  133.9114 C   0  0  0  0  0  0  0  0  0  0  0  0
   11.6064   48.5697  134.6237 C   0  0  0  0  0  0  0  0  0  0  0  0
   11.1177   47.2555  134.7480 O   0  0  0  0  0  0  0  0  0  0  0  0
   10.6919   44.5673  134.7967 O   0  0  0  0  0  0  0  0  0  0  0  0
   11.7674   43.7398  134.5906 C   0  0  0  0  0  0  0  0  0  0  0  0
   12.1989   43.7271  133.1640 C   0  0  0  0  0  0  0  0  0  0  0  0
   11.4262   42.7459  132.2973 C   0  0  0  0  0  0  0  0  0  0  0  0
   11.6389   43.0326  130.9122 N   0  0  0  0  0  0  0  0  0  0  0  0
   10.4659   42.8758  130.1056 C   0  0  0  0  0  0  0  0  0  0  0  0
   10.5500   43.8286  128.9301 C   0  0  0  0  0  0  0  0  0  0  0  0
   10.4800   45.2380  129.4729 C   0  0  0  0  0  0  0  0  0  0  0  0
   10.4618   46.1611  128.4563 O   0  0  0  0  0  0  0  0  0  0  0  0
   11.5933   45.4449  130.4786 C   0  0  0  0  0  0  0  0  0  0  0  0
   12.4263   44.1918  130.6464 C   0  0  0  0  0  0  0  0  0  0  0  0
   10.9597   46.9887  128.6152 H   0  0  0  0  0  0  0  0  0  0  0  0
    7.6740   49.9767  130.2367 C   0  0  0  0  0  0  0  0  0  0  0  0
    7.1789   51.2434  130.5602 C   0  0  0  0  0  0  0  0  0  0  0  0
    6.8607   52.2118  129.6489 C   0  0  0  0  0  0  0  0  0  0  0  0
    7.0321   51.9449  128.2828 C   0  0  0  0  0  0  0  0  0  0  0  0
    7.5105   50.7311  127.9230 C   0  0  0  0  0  0  0  0  0  0  0  0
    7.8329   49.7476  128.8556 C   0  0  0  0  0  0  0  0  0  0  0  0
    8.3025   48.5572  128.4533 F   0  0  0  0  0  0  0  0  0  0  0  0
    6.7229   52.9769  127.3747 N   0  0  0  0  0  0  0  0  0  0  0  0
    7.4075   54.1999  127.3009 C   0  0  0  0  0  0  0  0  0  0  0  0
    8.4090   54.3886  128.1085 O   0  0  0  0  0  0  0  0  0  0  0  0
    5.9193   52.7830  126.7049 H   0  0  0  0  0  0  0  0  0  0  0  0
    7.1152   55.3326  126.3848 C   0  0  0  0  0  0  0  0  0  0  0  0
    8.2410   56.3126  126.2363 C   0  0  0  0  0  0  0  0  0  0  0  0
    7.0607   56.6591  127.0948 C   0  0  0  0  0  0  0  0  0  0  0  0
    6.2746   55.1711  125.1910 C   0  0  0  0  0  0  0  0  0  0  0  0
    5.5519   56.1552  124.8072 O   0  0  0  0  0  0  0  0  0  0  0  0
    6.2236   53.9731  124.4342 N   0  0  0  0  0  0  0  0  0  0  0  0
    6.7755   53.1442  124.6677 H   0  0  0  0  0  0  0  0  0  0  0  0
    5.3712   53.9008  123.2837 C   0  0  0  0  0  0  0  0  0  0  0  0
    5.8760   54.0193  122.0843 C   0  0  0  0  0  0  0  0  0  0  0  0
    5.0809   53.9598  120.8641 C   0  0  0  0  0  0  0  0  0  0  0  0
    3.6347   53.6964  120.9932 C   0  0  0  0  0  0  0  0  0  0  0  0
    2.9328   54.7532  120.3885 F   0  0  0  0  0  0  0  0  0  0  0  0
    3.1301   53.5777  122.3737 C   0  0  0  0  0  0  0  0  0  0  0  0
    3.9437   53.6740  123.4016 C   0  0  0  0  0  0  0  0  0  0  0  0
 12 13  1  0  0  0
 13  2  1  0  0  0
  2  3  2  0  0  0
  3  4  1  0  0  0
  4  5  2  0  0  0
  5  1  1  0  0  0
  1 26  1  0  0  0
 26 27  2  0  0  0
 27 28  1  0  0  0
 28 29  2  0  0  0
 29 33  1  0  0  0
 33 34  1  0  0  0
 34 35  2  0  0  0
 34 37  1  0  0  0
 37 38  1  0  0  0
 38 39  1  0  0  0
 37 40  1  0  0  0
 40 41  2  0  0  0
 40 42  1  0  0  0
 42 44  1  0  0  0
 44 45  2  0  0  0
 45 46  1  0  0  0
 46 47  1  0  0  0
 47 48  1  0  0  0
 47 49  1  0  0  0
 49 50  2  0  0  0
 29 30  1  0  0  0
 30 31  2  0  0  0
 31 32  1  0  0  0
  5  6  1  0  0  0
  6  7  2  0  0  0
  7  8  1  0  0  0
  8  9  2  0  0  0
  9 10  1  0  0  0
 10 11  2  0  0  0
 11 14  1  0  0  0
 14 15  1  0  0  0
 15 16  1  0  0  0
 16 17  1  0  0  0
 17 18  1  0  0  0
 18 19  1  0  0  0
 19 20  1  0  0  0
 20 21  1  0  0  0
 21 22  1  0  0  0
 21 23  1  0  0  0
 23 24  1  0  0  0
 11  2  1  0  0  0
 24 18  1  0  0  0
  9  4  1  0  0  0
 31 26  1  0  0  0
 39 37  1  0  0  0
 50 44  1  0  0  0
 33 36  1  0  0  0
 42 43  1  0  0  0
 22 25  1  0  0  0
M  END
> <minimizedAffinity>
4.00221

> <CNNscore>
0.2267500013

> <CNNaffinity>
7.5833230019

> <CNN_VS>
1.7195185423

> <CNNaffinity_variance>
0.3119577765

$$$$
[H]OC1([H])C([H])([H])C([H])([H])N(C([H])([H])C([H])([H])C([H])([H])Oc2c(OC([H])([H])[H])c([H])c3c(Oc4c([H])c([H])c(N([H])C(=O)C5(C(=O)N([H])C6=C([H])C([H])([H])C([H])(F)C([H])=C6[H])C([H])([H])C5([H])[H])c([H])c4F)c([H])c([H])nc3c2[H])C([H])([H])C1([H])[H]


 50 55  0  0  0  0  0  0  0  0999 V2000
    9.1388   49.0543  131.4433 O   0  0  0  0  0  0  0  0  0  0  0  0
    8.7759   45.0994  129.9402 C   0  0  0  0  0  0  0  0  0  0  0  0
    8.8895   46.3720  130.4103 C   0  0  0  0  0  0  0  0  0  0  0  0
    8.6614   46.6938  131.7398 C   0  0  0  0  0  0  0  0  0  0  0  0
    8.7953   47.9773  132.1868 C   0  0  0  0  0  0  0  0  0  0  0  0
    8.5542   48.2178  133.5745 C   0  0  0  0  0  0  0  0  0  0  0  0
    8.2095   47.2000  134.3872 C   0  0  0  0  0  0  0  0  0  0  0  0
    8.0832   45.9465  133.9301 N   0  0  0  0  0  0  0  0  0  0  0  0
    8.3035   45.6826  132.6263 C   0  0  0  0  0  0  0  0  0  0  0  0
    8.1893   44.3894  132.1386 C   0  0  0  0  0  0  0  0  0  0  0  0
    8.4139   44.0656  130.8330 C   0  0  0  0  0  0  0  0  0  0  0  0
   10.2878   44.7554  128.0276 C   0  0  0  0  0  0  0  0  0  0  0  0
    9.0083   44.8088  128.6118 O   0  0  0  0  0  0  0  0  0  0  0  0
    8.3195   42.8229  130.3414 O   0  0  0  0  0  0  0  0  0  0  0  0
    9.2319   41.7983  130.3804 C   0  0  0  0  0  0  0  0  0  0  0  0
   10.6250   42.2956  130.5627 C   0  0  0  0  0  0  0  0  0  0  0  0
   11.1579   42.1257  131.9764 C   0  0  0  0  0  0  0  0  0  0  0  0
   12.1107   43.1500  132.2742 N   0  0  0  0  0  0  0  0  0  0  0  0
   12.0026   44.3000  131.4274 C   0  0  0  0  0  0  0  0  0  0  0  0
   12.4640   45.5202  132.1987 C   0  0  0  0  0  0  0  0  0  0  0  0
   11.4805   45.7541  133.3230 C   0  0  0  0  0  0  0  0  0  0  0  0
   11.7836   46.8996  134.0172 O   0  0  0  0  0  0  0  0  0  0  0  0
   11.3966   44.5110  134.1840 C   0  0  0  0  0  0  0  0  0  0  0  0
   12.3024   43.4155  133.6624 C   0  0  0  0  0  0  0  0  0  0  0  0
   11.6446   46.8674  134.9856 H   0  0  0  0  0  0  0  0  0  0  0  0
    8.5459   49.9174  130.6112 C   0  0  0  0  0  0  0  0  0  0  0  0
    8.1999   51.2285  130.9513 C   0  0  0  0  0  0  0  0  0  0  0  0
    7.5918   52.1175  130.1090 C   0  0  0  0  0  0  0  0  0  0  0  0
    7.2795   51.7142  128.8026 C   0  0  0  0  0  0  0  0  0  0  0  0
    7.5977   50.4531  128.4288 C   0  0  0  0  0  0  0  0  0  0  0  0
    8.2170   49.5509  129.2912 C   0  0  0  0  0  0  0  0  0  0  0  0
    8.5122   48.3093  128.8783 F   0  0  0  0  0  0  0  0  0  0  0  0
    6.6814   52.6664  127.9535 N   0  0  0  0  0  0  0  0  0  0  0  0
    7.2659   53.8927  127.6008 C   0  0  0  0  0  0  0  0  0  0  0  0
    8.4483   54.1627  128.0696 O   0  0  0  0  0  0  0  0  0  0  0  0
    5.7281   52.4057  127.5595 H   0  0  0  0  0  0  0  0  0  0  0  0
    6.6776   54.9449  126.7322 C   0  0  0  0  0  0  0  0  0  0  0  0
    7.5737   56.1250  126.4990 C   0  0  0  0  0  0  0  0  0  0  0  0
    6.4314   56.2369  127.4649 C   0  0  0  0  0  0  0  0  0  0  0  0
    5.7795   54.6203  125.6159 C   0  0  0  0  0  0  0  0  0  0  0  0
    4.5192   54.5700  125.8323 O   0  0  0  0  0  0  0  0  0  0  0  0
    6.2398   54.3604  124.3002 N   0  0  0  0  0  0  0  0  0  0  0  0
    7.2290   54.3889  124.0416 H   0  0  0  0  0  0  0  0  0  0  0  0
    5.2929   54.0471  123.2702 C   0  0  0  0  0  0  0  0  0  0  0  0
    5.6835   53.9494  122.0271 C   0  0  0  0  0  0  0  0  0  0  0  0
    4.7869   53.6370  120.9212 C   0  0  0  0  0  0  0  0  0  0  0  0
    3.3712   53.3631  121.2348 C   0  0  0  0  0  0  0  0  0  0  0  0
    2.5714   54.2658  120.5134 F   0  0  0  0  0  0  0  0  0  0  0  0
    2.9968   53.4951  122.6551 C   0  0  0  0  0  0  0  0  0  0  0  0
    3.8932   53.8075  123.5643 C   0  0  0  0  0  0  0  0  0  0  0  0
 12 13  1  0  0  0
 13  2  1  0  0  0
  2  3  2  0  0  0
  3  4  1  0  0  0
  4  5  2  0  0  0
  5  1  1  0  0  0
  1 26  1  0  0  0
 26 27  2  0  0  0
 27 28  1  0  0  0
 28 29  2  0  0  0
 29 33  1  0  0  0
 33 34  1  0  0  0
 34 35  2  0  0  0
 34 37  1  0  0  0
 37 38  1  0  0  0
 38 39  1  0  0  0
 37 40  1  0  0  0
 40 41  2  0  0  0
 40 42  1  0  0  0
 42 44  1  0  0  0
 44 45  2  0  0  0
 45 46  1  0  0  0
 46 47  1  0  0  0
 47 48  1  0  0  0
 47 49  1  0  0  0
 49 50  2  0  0  0
 29 30  1  0  0  0
 30 31  2  0  0  0
 31 32  1  0  0  0
  5  6  1  0  0  0
  6  7  2  0  0  0
  7  8  1  0  0  0
  8  9  2  0  0  0
  9 10  1  0  0  0
 10 11  2  0  0  0
 11 14  1  0  0  0
 14 15  1  0  0  0
 15 16  1  0  0  0
 16 17  1  0  0  0
 17 18  1  0  0  0
 18 19  1  0  0  0
 19 20  1  0  0  0
 20 21  1  0  0  0
 21 22  1  0  0  0
 21 23  1  0  0  0
 23 24  1  0  0  0
 11  2  1  0  0  0
 24 18  1  0  0  0
  9  4  1  0  0  0
 31 26  1  0  0  0
 39 37  1  0  0  0
 50 44  1  0  0  0
 33 36  1  0  0  0
 42 43  1  0  0  0
 22 25  1  0  0  0
M  END
> <minimizedAffinity>
4.46061

> <CNNscore>
0.2261906862

> <CNNaffinity>
7.6987457275

> <CNN_VS>
1.7413846254

> <CNNaffinity_variance>
0.3663043380

$$$$
[H]OC1([H])C([H])([H])C([H])([H])N(C([H])([H])C([H])([H])C([H])([H])Oc2c(OC([H])([H])[H])c([H])c3c(Oc4c([H])c([H])c(N([H])C(=O)C5(C(=O)N([H])C6=C([H])C([H])([H])C([H])(F)C([H])=C6[H])C([H])([H])C5([H])[H])c([H])c4F)c([H])c([H])nc3c2[H])C([H])([H])C1([H])[H]


 50 55  0  0  0  0  0  0  0  0999 V2000
    7.7137   48.5836  131.0512 O   0  0  0  0  0  0  0  0  0  0  0  0
    8.3410   44.5530  132.2317 C   0  0  0  0  0  0  0  0  0  0  0  0
    8.1279   45.8422  131.8494 C   0  0  0  0  0  0  0  0  0  0  0  0
    8.7998   46.9077  132.4294 C   0  0  0  0  0  0  0  0  0  0  0  0
    8.5756   48.1902  132.0171 C   0  0  0  0  0  0  0  0  0  0  0  0
    9.3208   49.2262  132.6598 C   0  0  0  0  0  0  0  0  0  0  0  0
   10.2031   48.9215  133.6314 C   0  0  0  0  0  0  0  0  0  0  0  0
   10.4097   47.6563  134.0225 N   0  0  0  0  0  0  0  0  0  0  0  0
    9.7244   46.6531  133.4378 C   0  0  0  0  0  0  0  0  0  0  0  0
    9.9346   45.3371  133.8214 C   0  0  0  0  0  0  0  0  0  0  0  0
    9.2787   44.2844  133.2542 C   0  0  0  0  0  0  0  0  0  0  0  0
    8.1177   42.8083  130.5089 C   0  0  0  0  0  0  0  0  0  0  0  0
    7.6572   43.5128  131.6372 O   0  0  0  0  0  0  0  0  0  0  0  0
    9.4724   43.0050  133.6011 O   0  0  0  0  0  0  0  0  0  0  0  0
   10.5546   42.1931  133.3697 C   0  0  0  0  0  0  0  0  0  0  0  0
   11.0267   42.2779  131.9586 C   0  0  0  0  0  0  0  0  0  0  0  0
   12.2637   43.1426  131.7756 C   0  0  0  0  0  0  0  0  0  0  0  0
   12.2819   43.7118  130.4635 N   0  0  0  0  0  0  0  0  0  0  0  0
   11.1565   43.3398  129.6595 C   0  0  0  0  0  0  0  0  0  0  0  0
   10.8667   44.4570  128.6774 C   0  0  0  0  0  0  0  0  0  0  0  0
   10.4142   45.6622  129.4704 C   0  0  0  0  0  0  0  0  0  0  0  0
   10.0473   46.6931  128.6405 O   0  0  0  0  0  0  0  0  0  0  0  0
   11.4817   46.0289  130.4802 C   0  0  0  0  0  0  0  0  0  0  0  0
   12.6629   45.0849  130.4029 C   0  0  0  0  0  0  0  0  0  0  0  0
   10.2829   47.5943  128.9410 H   0  0  0  0  0  0  0  0  0  0  0  0
    7.5637   49.6149  130.2129 C   0  0  0  0  0  0  0  0  0  0  0  0
    7.6026   50.9575  130.6006 C   0  0  0  0  0  0  0  0  0  0  0  0
    7.4481   52.0184  129.7520 C   0  0  0  0  0  0  0  0  0  0  0  0
    7.2331   51.7743  128.3878 C   0  0  0  0  0  0  0  0  0  0  0  0
    7.1892   50.4889  127.9668 C   0  0  0  0  0  0  0  0  0  0  0  0
    7.3469   49.4112  128.8358 C   0  0  0  0  0  0  0  0  0  0  0  0
    7.2939   48.1528  128.3745 F   0  0  0  0  0  0  0  0  0  0  0  0
    7.1090   52.8920  127.5388 N   0  0  0  0  0  0  0  0  0  0  0  0
    8.0084   53.2095  126.5092 C   0  0  0  0  0  0  0  0  0  0  0  0
    9.0132   52.4091  126.3078 O   0  0  0  0  0  0  0  0  0  0  0  0
    6.2608   53.5121  127.7058 H   0  0  0  0  0  0  0  0  0  0  0  0
    7.9452   54.3822  125.5990 C   0  0  0  0  0  0  0  0  0  0  0  0
    8.8538   54.2896  124.4091 C   0  0  0  0  0  0  0  0  0  0  0  0
    9.2300   55.1665  125.5666 C   0  0  0  0  0  0  0  0  0  0  0  0
    6.6972   55.1217  125.3678 C   0  0  0  0  0  0  0  0  0  0  0  0
    6.6695   56.0146  124.4514 O   0  0  0  0  0  0  0  0  0  0  0  0
    5.5114   54.8941  126.1112 N   0  0  0  0  0  0  0  0  0  0  0  0
    5.4467   54.1937  126.8539 H   0  0  0  0  0  0  0  0  0  0  0  0
    4.3378   55.6652  125.8216 C   0  0  0  0  0  0  0  0  0  0  0  0
    3.2442   55.0715  125.4231 C   0  0  0  0  0  0  0  0  0  0  0  0
    2.0103   55.7799  125.1065 C   0  0  0  0  0  0  0  0  0  0  0  0
    1.9832   57.2424  125.3007 C   0  0  0  0  0  0  0  0  0  0  0  0
    1.6457   57.8489  124.0786 F   0  0  0  0  0  0  0  0  0  0  0  0
    3.2511   57.8489  125.7473 C   0  0  0  0  0  0  0  0  0  0  0  0
    4.3108   57.1066  125.9789 C   0  0  0  0  0  0  0  0  0  0  0  0
 12 13  1  0  0  0
 13  2  1  0  0  0
  2  3  2  0  0  0
  3  4  1  0  0  0
  4  5  2  0  0  0
  5  1  1  0  0  0
  1 26  1  0  0  0
 26 27  2  0  0  0
 27 28  1  0  0  0
 28 29  2  0  0  0
 29 33  1  0  0  0
 33 34  1  0  0  0
 34 35  2  0  0  0
 34 37  1  0  0  0
 37 38  1  0  0  0
 38 39  1  0  0  0
 37 40  1  0  0  0
 40 41  2  0  0  0
 40 42  1  0  0  0
 42 44  1  0  0  0
 44 45  2  0  0  0
 45 46  1  0  0  0
 46 47  1  0  0  0
 47 48  1  0  0  0
 47 49  1  0  0  0
 49 50  2  0  0  0
 29 30  1  0  0  0
 30 31  2  0  0  0
 31 32  1  0  0  0
  5  6  1  0  0  0
  6  7  2  0  0  0
  7  8  1  0  0  0
  8  9  2  0  0  0
  9 10  1  0  0  0
 10 11  2  0  0  0
 11 14  1  0  0  0
 14 15  1  0  0  0
 15 16  1  0  0  0
 16 17  1  0  0  0
 17 18  1  0  0  0
 18 19  1  0  0  0
 19 20  1  0  0  0
 20 21  1  0  0  0
 21 22  1  0  0  0
 21 23  1  0  0  0
 23 24  1  0  0  0
 11  2  1  0  0  0
 24 18  1  0  0  0
  9  4  1  0  0  0
 31 26  1  0  0  0
 39 37  1  0  0  0
 50 44  1  0  0  0
 33 36  1  0  0  0
 42 43  1  0  0  0
 22 25  1  0  0  0
M  END
> <minimizedAffinity>
5.37961

> <CNNscore>
0.2231475115

> <CNNaffinity>
7.8347024918

> <CNN_VS>
1.7482943535

> <CNNaffinity_variance>
0.4511638582

$$$$
[H]OC(=O)C([H])([H])C([H])(C(=O)C([H])([H])F)N([H])C(=O)[C@@]([H])(N([H])C(=O)OC([H])([H])c1c([H])c([H])c([H])c([H])c1[H])C([H])(C([H])([H])[H])C([H])([H])[H]


 30 30  0  0  0  0  0  0  0  0999 V2000
    7.4301   49.9265  130.0568 C   0  0  0  0  0  0  0  0  0  0  0  0
    8.4575   50.4114  130.9565 N   0  0  0  0  0  0  0  0  0  0  0  0
    8.7596   49.8385  132.2004 C   0  0  0  0  0  0  0  0  0  0  0  0
    8.1267   48.8410  132.5976 O   0  0  0  0  0  0  0  0  0  0  0  0
    9.0013   51.2423  130.6463 H   0  0  0  0  0  0  0  0  0  0  0  0
    9.7494   50.3638  132.9924 O   0  0  0  0  0  0  0  0  0  0  0  0
   10.8988   49.6884  133.4264 C   0  0  0  0  0  0  0  0  0  0  0  0
   10.6522   48.3195  133.9271 C   0  0  0  0  0  0  0  0  0  0  0  0
   10.2310   48.0992  135.2337 C   0  0  0  0  0  0  0  0  0  0  0  0
    9.9970   46.8346  135.7043 C   0  0  0  0  0  0  0  0  0  0  0  0
   10.1678   45.7361  134.9077 C   0  0  0  0  0  0  0  0  0  0  0  0
   10.5801   45.9149  133.6196 C   0  0  0  0  0  0  0  0  0  0  0  0
   10.8170   47.1979  133.1446 C   0  0  0  0  0  0  0  0  0  0  0  0
    7.3549   48.4632  130.0253 C   0  0  0  0  0  0  0  0  0  0  0  0
    6.6782   47.8946  130.9356 O   0  0  0  0  0  0  0  0  0  0  0  0
    7.9785   47.6495  129.0581 N   0  0  0  0  0  0  0  0  0  0  0  0
    8.5365   48.0920  128.3143 H   0  0  0  0  0  0  0  0  0  0  0  0
    7.8821   46.1820  129.0440 C   0  0  0  0  0  0  0  0  0  0  0  0
    9.0760   45.5918  129.6871 C   0  0  0  0  0  0  0  0  0  0  0  0
   10.0366   45.1866  128.9972 O   0  0  0  0  0  0  0  0  0  0  0  0
    9.2767   45.4081  131.1470 C   0  0  0  0  0  0  0  0  0  0  0  0
    8.5131   44.2609  131.4688 F   0  0  0  0  0  0  0  0  0  0  0  0
    6.5759   45.8684  129.7389 C   0  0  0  0  0  0  0  0  0  0  0  0
    5.4097   46.5957  129.2510 C   0  0  0  0  0  0  0  0  0  0  0  0
    5.3606   47.0485  127.9498 O   0  0  0  0  0  0  0  0  0  0  0  0
    4.4418   46.8139  130.0158 O   0  0  0  0  0  0  0  0  0  0  0  0
    5.0939   46.4338  127.1852 H   0  0  0  0  0  0  0  0  0  0  0  0
    6.9230   49.6722  127.6228 C   0  0  0  0  0  0  0  0  0  0  0  0
    7.5478   50.5391  128.6987 C   0  0  0  0  0  0  0  0  0  0  0  0
    7.0617   51.9637  128.6511 C   0  0  0  0  0  0  0  0  0  0  0  0
 28 29  1  0  0  0
 29 30  1  0  0  0
 29  1  1  0  0  0
  1  2  1  0  0  0
  2  3  1  0  0  0
  3  4  2  0  0  0
  3  6  1  0  0  0
  6  7  1  0  0  0
  7  8  1  0  0  0
  8  9  2  0  0  0
  9 10  1  0  0  0
 10 11  2  0  0  0
 11 12  1  0  0  0
 12 13  2  0  0  0
  1 14  1  0  0  0
 14 15  2  0  0  0
 14 16  1  0  0  0
 16 18  1  0  0  0
 18 23  1  0  0  0
 23 24  1  0  0  0
 24 25  1  0  0  0
 24 26  2  0  0  0
 18 19  1  0  0  0
 19 20  2  0  0  0
 19 21  1  0  0  0
 21 22  1  0  0  0
 13  8  1  0  0  0
  2  5  1  0  0  0
 16 17  1  0  0  0
 25 27  1  0  0  0
M  END
> <minimizedAffinity>
4.51215

> <CNNscore>
0.5022579432

> <CNNaffinity>
6.1877403259

> <CNN_VS>
3.1078417301

> <CNNaffinity_variance>
0.9734878540

$$$$
[H]OC(=O)C([H])([H])C([H])(C(=O)C([H])([H])F)N([H])C(=O)[C@@]([H])(N([H])C(=O)OC([H])([H])c1c([H])c([H])c([H])c([H])c1[H])C([H])(C([H])([H])[H])C([H])([H])[H]


 30 30  0  0  0  0  0  0  0  0999 V2000
   10.0241   47.3376  132.7078 C   0  0  0  0  0  0  0  0  0  0  0  0
    9.3368   48.0867  131.6750 N   0  0  0  0  0  0  0  0  0  0  0  0
    8.1934   47.6401  130.9968 C   0  0  0  0  0  0  0  0  0  0  0  0
    7.6998   46.5292  131.2714 O   0  0  0  0  0  0  0  0  0  0  0  0
    9.7288   49.0185  131.4292 H   0  0  0  0  0  0  0  0  0  0  0  0
    7.6055   48.4143  130.0283 O   0  0  0  0  0  0  0  0  0  0  0  0
    6.6376   49.4052  130.2447 C   0  0  0  0  0  0  0  0  0  0  0  0
    6.8183   50.6258  129.4304 C   0  0  0  0  0  0  0  0  0  0  0  0
    7.2810   50.5521  128.1215 C   0  0  0  0  0  0  0  0  0  0  0  0
    7.4479   51.6776  127.3592 C   0  0  0  0  0  0  0  0  0  0  0  0
    7.1657   52.9207  127.8548 C   0  0  0  0  0  0  0  0  0  0  0  0
    6.7093   53.0306  129.1357 C   0  0  0  0  0  0  0  0  0  0  0  0
    6.5410   51.8882  129.9067 C   0  0  0  0  0  0  0  0  0  0  0  0
   10.4578   46.0149  132.2490 C   0  0  0  0  0  0  0  0  0  0  0  0
   10.9731   45.2392  133.1107 O   0  0  0  0  0  0  0  0  0  0  0  0
   10.3413   45.5484  130.9242 N   0  0  0  0  0  0  0  0  0  0  0  0
    9.9306   46.1653  130.2093 H   0  0  0  0  0  0  0  0  0  0  0  0
   10.7780   44.2128  130.4900 C   0  0  0  0  0  0  0  0  0  0  0  0
   12.2540   44.1661  130.4093 C   0  0  0  0  0  0  0  0  0  0  0  0
   12.9367   43.8433  131.4057 O   0  0  0  0  0  0  0  0  0  0  0  0
   13.0704   44.4826  129.2099 C   0  0  0  0  0  0  0  0  0  0  0  0
   14.4087   44.3046  129.6344 F   0  0  0  0  0  0  0  0  0  0  0  0
   10.1743   43.2572  131.4948 C   0  0  0  0  0  0  0  0  0  0  0  0
   10.3936   41.8398  131.2301 C   0  0  0  0  0  0  0  0  0  0  0  0
   11.3977   41.1533  131.8790 O   0  0  0  0  0  0  0  0  0  0  0  0
    9.6669   41.2360  130.4074 O   0  0  0  0  0  0  0  0  0  0  0  0
   11.2682   40.7904  132.8197 H   0  0  0  0  0  0  0  0  0  0  0  0
    9.9154   46.4535  135.0428 C   0  0  0  0  0  0  0  0  0  0  0  0
    9.2362   47.2912  133.9768 C   0  0  0  0  0  0  0  0  0  0  0  0
    8.8419   48.6564  134.4755 C   0  0  0  0  0  0  0  0  0  0  0  0
 28 29  1  0  0  0
 29 30  1  0  0  0
 29  1  1  0  0  0
  1  2  1  0  0  0
  2  3  1  0  0  0
  3  4  2  0  0  0
  3  6  1  0  0  0
  6  7  1  0  0  0
  7  8  1  0  0  0
  8  9  2  0  0  0
  9 10  1  0  0  0
 10 11  2  0  0  0
 11 12  1  0  0  0
 12 13  2  0  0  0
  1 14  1  0  0  0
 14 15  2  0  0  0
 14 16  1  0  0  0
 16 18  1  0  0  0
 18 23  1  0  0  0
 23 24  1  0  0  0
 24 25  1  0  0  0
 24 26  2  0  0  0
 18 19  1  0  0  0
 19 20  2  0  0  0
 19 21  1  0  0  0
 21 22  1  0  0  0
 13  8  1  0  0  0
  2  5  1  0  0  0
 16 17  1  0  0  0
 25 27  1  0  0  0
M  END
> <minimizedAffinity>
4.87655

> <CNNscore>
0.4038321972

> <CNNaffinity>
6.6125373840

> <CNN_VS>
2.6703555584

> <CNNaffinity_variance>
1.4253215790

$$$$
[H]OC(=O)C([H])([H])C([H])(C(=O)C([H])([H])F)N([H])C(=O)[C@@]([H])(N([H])C(=O)OC([H])([H])c1c([H])c([H])c([H])c([H])c1[H])C([H])(C([H])([H])[H])C([H])([H])[H]


 30 30  0  0  0  0  0  0  0  0999 V2000
    9.0830   46.2715  132.9331 C   0  0  0  0  0  0  0  0  0  0  0  0
    9.9368   45.1009  132.9615 N   0  0  0  0  0  0  0  0  0  0  0  0
    9.4816   43.7816  132.8225 C   0  0  0  0  0  0  0  0  0  0  0  0
    8.2671   43.5552  132.6591 O   0  0  0  0  0  0  0  0  0  0  0  0
   10.9556   45.2641  133.0948 H   0  0  0  0  0  0  0  0  0  0  0  0
   10.3606   42.7287  132.8636 O   0  0  0  0  0  0  0  0  0  0  0  0
   11.1123   42.2440  131.7839 C   0  0  0  0  0  0  0  0  0  0  0  0
   10.9950   43.0457  130.5474 C   0  0  0  0  0  0  0  0  0  0  0  0
   11.9603   43.9874  130.2094 C   0  0  0  0  0  0  0  0  0  0  0  0
   11.8609   44.7316  129.0641 C   0  0  0  0  0  0  0  0  0  0  0  0
   10.8075   44.5785  128.2053 C   0  0  0  0  0  0  0  0  0  0  0  0
    9.8416   43.6631  128.5053 C   0  0  0  0  0  0  0  0  0  0  0  0
    9.9442   42.9097  129.6670 C   0  0  0  0  0  0  0  0  0  0  0  0
    9.1566   46.9904  131.6580 C   0  0  0  0  0  0  0  0  0  0  0  0
   10.1220   46.7083  130.8846 O   0  0  0  0  0  0  0  0  0  0  0  0
    8.2331   47.9673  131.2345 N   0  0  0  0  0  0  0  0  0  0  0  0
    7.4457   48.2140  131.8506 H   0  0  0  0  0  0  0  0  0  0  0  0
    8.3249   48.6701  129.9460 C   0  0  0  0  0  0  0  0  0  0  0  0
    7.3270   48.1237  129.0010 C   0  0  0  0  0  0  0  0  0  0  0  0
    7.3095   48.4953  127.8074 O   0  0  0  0  0  0  0  0  0  0  0  0
    6.2749   47.1273  129.3261 C   0  0  0  0  0  0  0  0  0  0  0  0
    5.0621   47.7611  128.9654 F   0  0  0  0  0  0  0  0  0  0  0  0
    8.1347   50.1322  130.2827 C   0  0  0  0  0  0  0  0  0  0  0  0
    6.9136   50.7449  129.7723 C   0  0  0  0  0  0  0  0  0  0  0  0
    6.9286   51.4601  128.5938 O   0  0  0  0  0  0  0  0  0  0  0  0
    5.8394   50.6238  130.4055 O   0  0  0  0  0  0  0  0  0  0  0  0
    6.8781   50.9945  127.6915 H   0  0  0  0  0  0  0  0  0  0  0  0
    9.3858   46.3638  135.4122 C   0  0  0  0  0  0  0  0  0  0  0  0
    9.3095   47.1522  134.1191 C   0  0  0  0  0  0  0  0  0  0  0  0
   10.4739   48.0906  133.9421 C   0  0  0  0  0  0  0  0  0  0  0  0
 28 29  1  0  0  0
 29 30  1  0  0  0
 29  1  1  0  0  0
  1  2  1  0  0  0
  2  3  1  0  0  0
  3  4  2  0  0  0
  3  6  1  0  0  0
  6  7  1  0  0  0
  7  8  1  0  0  0
  8  9  2  0  0  0
  9 10  1  0  0  0
 10 11  2  0  0  0
 11 12  1  0  0  0
 12 13  2  0  0  0
  1 14  1  0  0  0
 14 15  2  0  0  0
 14 16  1  0  0  0
 16 18  1  0  0  0
 18 23  1  0  0  0
 23 24  1  0  0  0
 24 25  1  0  0  0
 24 26  2  0  0  0
 18 19  1  0  0  0
 19 20  2  0  0  0
 19 21  1  0  0  0
 21 22  1  0  0  0
 13  8  1  0  0  0
  2  5  1  0  0  0
 16 17  1  0  0  0
 25 27  1  0  0  0
M  END
> <minimizedAffinity>
-8.19898

> <CNNscore>
0.3204736114

> <CNNaffinity>
6.7010107040

> <CNN_VS>
2.1474971771

> <CNNaffinity_variance>
0.1814081520

$$$$
[H]OC(=O)C([H])([H])C([H])(C(=O)C([H])([H])F)N([H])C(=O)[C@@]([H])(N([H])C(=O)OC([H])([H])c1c([H])c([H])c([H])c([H])c1[H])C([H])(C([H])([H])[H])C([H])([H])[H]


 30 30  0  0  0  0  0  0  0  0999 V2000
    9.7743   44.7496  129.9782 C   0  0  0  0  0  0  0  0  0  0  0  0
   10.3879   44.2590  131.1959 N   0  0  0  0  0  0  0  0  0  0  0  0
   11.7713   44.1724  131.4098 C   0  0  0  0  0  0  0  0  0  0  0  0
   12.5637   44.5338  130.5184 O   0  0  0  0  0  0  0  0  0  0  0  0
    9.7469   43.9531  131.9561 H   0  0  0  0  0  0  0  0  0  0  0  0
   12.2687   43.6926  132.5952 O   0  0  0  0  0  0  0  0  0  0  0  0
   12.0626   44.2585  133.8613 C   0  0  0  0  0  0  0  0  0  0  0  0
   10.9532   45.2337  133.9227 C   0  0  0  0  0  0  0  0  0  0  0  0
    9.6546   44.8252  134.2050 C   0  0  0  0  0  0  0  0  0  0  0  0
    8.6219   45.7226  134.2672 C   0  0  0  0  0  0  0  0  0  0  0  0
    8.8261   47.0580  134.0543 C   0  0  0  0  0  0  0  0  0  0  0  0
   10.0880   47.4945  133.7749 C   0  0  0  0  0  0  0  0  0  0  0  0
   11.1335   46.5830  133.7123 C   0  0  0  0  0  0  0  0  0  0  0  0
    8.7730   45.7893  130.2323 C   0  0  0  0  0  0  0  0  0  0  0  0
    7.7033   45.4377  130.8172 O   0  0  0  0  0  0  0  0  0  0  0  0
    8.9167   47.1448  129.8742 N   0  0  0  0  0  0  0  0  0  0  0  0
    9.7754   47.4486  129.3939 H   0  0  0  0  0  0  0  0  0  0  0  0
    7.8993   48.1712  130.1468 C   0  0  0  0  0  0  0  0  0  0  0  0
    8.5537   49.4412  130.5292 C   0  0  0  0  0  0  0  0  0  0  0  0
    7.9336   50.5244  130.4573 O   0  0  0  0  0  0  0  0  0  0  0  0
    9.9497   49.5895  131.0134 C   0  0  0  0  0  0  0  0  0  0  0  0
    9.8264   50.2645  132.2511 F   0  0  0  0  0  0  0  0  0  0  0  0
    7.0716   48.2478  128.8834 C   0  0  0  0  0  0  0  0  0  0  0  0
    5.6258   48.2605  129.0746 C   0  0  0  0  0  0  0  0  0  0  0  0
    4.9331   49.4522  129.1001 O   0  0  0  0  0  0  0  0  0  0  0  0
    5.0029   47.1830  129.2176 O   0  0  0  0  0  0  0  0  0  0  0  0
    4.6598   49.9239  128.2420 H   0  0  0  0  0  0  0  0  0  0  0  0
   10.1501   43.3725  127.9268 C   0  0  0  0  0  0  0  0  0  0  0  0
    9.2609   43.6336  129.1271 C   0  0  0  0  0  0  0  0  0  0  0  0
    8.9635   42.3832  129.9119 C   0  0  0  0  0  0  0  0  0  0  0  0
 28 29  1  0  0  0
 29 30  1  0  0  0
 29  1  1  0  0  0
  1  2  1  0  0  0
  2  3  1  0  0  0
  3  4  2  0  0  0
  3  6  1  0  0  0
  6  7  1  0  0  0
  7  8  1  0  0  0
  8  9  2  0  0  0
  9 10  1  0  0  0
 10 11  2  0  0  0
 11 12  1  0  0  0
 12 13  2  0  0  0
  1 14  1  0  0  0
 14 15  2  0  0  0
 14 16  1  0  0  0
 16 18  1  0  0  0
 18 23  1  0  0  0
 23 24  1  0  0  0
 24 25  1  0  0  0
 24 26  2  0  0  0
 18 19  1  0  0  0
 19 20  2  0  0  0
 19 21  1  0  0  0
 21 22  1  0  0  0
 13  8  1  0  0  0
  2  5  1  0  0  0
 16 17  1  0  0  0
 25 27  1  0  0  0
M  END
> <minimizedAffinity>
-7.57376

> <CNNscore>
0.2289743572

> <CNNaffinity>
6.6075735092

> <CNN_VS>
1.5129648447

> <CNNaffinity_variance>
0.0335897915

$$$$
[H]OC(=O)C([H])([H])C([H])(C(=O)C([H])([H])F)N([H])C(=O)[C@@]([H])(N([H])C(=O)OC([H])([H])c1c([H])c([H])c([H])c([H])c1[H])C([H])(C([H])([H])[H])C([H])([H])[H]


 30 30  0  0  0  0  0  0  0  0999 V2000
   10.2107   46.9592  132.4755 C   0  0  0  0  0  0  0  0  0  0  0  0
    9.4059   48.1562  132.3356 N   0  0  0  0  0  0  0  0  0  0  0  0
    9.6926   49.2081  131.4534 C   0  0  0  0  0  0  0  0  0  0  0  0
   10.6978   49.1494  130.7191 O   0  0  0  0  0  0  0  0  0  0  0  0
    8.5598   48.2277  132.9368 H   0  0  0  0  0  0  0  0  0  0  0  0
    8.8761   50.3088  131.3861 O   0  0  0  0  0  0  0  0  0  0  0  0
    8.0647   50.6640  130.2993 C   0  0  0  0  0  0  0  0  0  0  0  0
    7.2105   49.5702  129.7898 C   0  0  0  0  0  0  0  0  0  0  0  0
    5.8244   49.6506  129.8613 C   0  0  0  0  0  0  0  0  0  0  0  0
    5.0259   48.6434  129.3885 C   0  0  0  0  0  0  0  0  0  0  0  0
    5.5597   47.5168  128.8262 C   0  0  0  0  0  0  0  0  0  0  0  0
    6.9165   47.4041  128.7394 C   0  0  0  0  0  0  0  0  0  0  0  0
    7.7241   48.4264  129.2195 C   0  0  0  0  0  0  0  0  0  0  0  0
    9.6731   45.8278  131.7147 C   0  0  0  0  0  0  0  0  0  0  0  0
    8.4153   45.7777  131.5553 O   0  0  0  0  0  0  0  0  0  0  0  0
   10.4532   44.7985  131.1506 N   0  0  0  0  0  0  0  0  0  0  0  0
   11.4754   44.8186  131.2738 H   0  0  0  0  0  0  0  0  0  0  0  0
    9.8899   43.6765  130.3846 C   0  0  0  0  0  0  0  0  0  0  0  0
   10.1510   43.8692  128.9417 C   0  0  0  0  0  0  0  0  0  0  0  0
    9.6499   43.0980  128.0949 O   0  0  0  0  0  0  0  0  0  0  0  0
   10.9956   44.9350  128.3449 C   0  0  0  0  0  0  0  0  0  0  0  0
   10.1666   46.0818  128.3363 F   0  0  0  0  0  0  0  0  0  0  0  0
   10.5260   42.4389  130.9771 C   0  0  0  0  0  0  0  0  0  0  0  0
   11.0555   42.5853  132.3281 C   0  0  0  0  0  0  0  0  0  0  0  0
   12.4155   42.6512  132.5440 O   0  0  0  0  0  0  0  0  0  0  0  0
   10.2731   42.6521  133.3042 O   0  0  0  0  0  0  0  0  0  0  0  0
   12.9289   43.5205  132.4241 H   0  0  0  0  0  0  0  0  0  0  0  0
    9.2371   46.1077  134.6140 C   0  0  0  0  0  0  0  0  0  0  0  0
   10.4735   46.6320  133.9099 C   0  0  0  0  0  0  0  0  0  0  0  0
   11.6719   45.7402  134.1005 C   0  0  0  0  0  0  0  0  0  0  0  0
 28 29  1  0  0  0
 29 30  1  0  0  0
 29  1  1  0  0  0
  1  2  1  0  0  0
  2  3  1  0  0  0
  3  4  2  0  0  0
  3  6  1  0  0  0
  6  7  1  0  0  0
  7  8  1  0  0  0
  8  9  2  0  0  0
  9 10  1  0  0  0
 10 11  2  0  0  0
 11 12  1  0  0  0
 12 13  2  0  0  0
  1 14  1  0  0  0
 14 15  2  0  0  0
 14 16  1  0  0  0
 16 18  1  0  0  0
 18 23  1  0  0  0
 23 24  1  0  0  0
 24 25  1  0  0  0
 24 26  2  0  0  0
 18 19  1  0  0  0
 19 20  2  0  0  0
 19 21  1  0  0  0
 21 22  1  0  0  0
 13  8  1  0  0  0
  2  5  1  0  0  0
 16 17  1  0  0  0
 25 27  1  0  0  0
M  END
> <minimizedAffinity>
-6.95490

> <CNNscore>
0.2236950547

> <CNNaffinity>
6.3637328148

> <CNN_VS>
1.4235355854

> <CNNaffinity_variance>
0.4641335011

$$$$
[H]OC(=O)C([H])([H])C([H])(C(=O)C([H])([H])F)N([H])C(=O)[C@@]([H])(N([H])C(=O)OC([H])([H])c1c([H])c([H])c([H])c([H])c1[H])C([H])(C([H])([H])[H])C([H])([H])[H]


 30 30  0  0  0  0  0  0  0  0999 V2000
   10.1982   47.1389  133.2811 C   0  0  0  0  0  0  0  0  0  0  0  0
    9.7495   47.9902  132.1975 N   0  0  0  0  0  0  0  0  0  0  0  0
    9.7406   49.3920  132.2394 C   0  0  0  0  0  0  0  0  0  0  0  0
   10.1398   49.9877  133.2587 O   0  0  0  0  0  0  0  0  0  0  0  0
    9.4133   47.5162  131.3346 H   0  0  0  0  0  0  0  0  0  0  0  0
    9.2960   50.1226  131.1664 O   0  0  0  0  0  0  0  0  0  0  0  0
    9.1388   49.6463  129.8572 C   0  0  0  0  0  0  0  0  0  0  0  0
    7.8406   48.9890  129.5966 C   0  0  0  0  0  0  0  0  0  0  0  0
    7.7698   47.6304  129.3100 C   0  0  0  0  0  0  0  0  0  0  0  0
    6.5708   47.0132  129.0708 C   0  0  0  0  0  0  0  0  0  0  0  0
    5.3936   47.7084  129.1044 C   0  0  0  0  0  0  0  0  0  0  0  0
    5.4254   49.0436  129.3827 C   0  0  0  0  0  0  0  0  0  0  0  0
    6.6420   49.6673  129.6248 C   0  0  0  0  0  0  0  0  0  0  0  0
   11.1177   46.0908  132.8292 C   0  0  0  0  0  0  0  0  0  0  0  0
   12.0202   45.7182  133.6394 O   0  0  0  0  0  0  0  0  0  0  0  0
   11.0674   45.4717  131.5641 N   0  0  0  0  0  0  0  0  0  0  0  0
   10.3454   45.7643  130.8906 H   0  0  0  0  0  0  0  0  0  0  0  0
   11.9980   44.4163  131.1366 C   0  0  0  0  0  0  0  0  0  0  0  0
   11.7767   43.1933  131.9383 C   0  0  0  0  0  0  0  0  0  0  0  0
   12.7070   42.6927  132.6068 O   0  0  0  0  0  0  0  0  0  0  0  0
   10.5006   42.4412  132.0441 C   0  0  0  0  0  0  0  0  0  0  0  0
   10.0321   42.7190  133.3502 F   0  0  0  0  0  0  0  0  0  0  0  0
   11.7465   44.2487  129.6547 C   0  0  0  0  0  0  0  0  0  0  0  0
   10.5464   44.8980  129.1398 C   0  0  0  0  0  0  0  0  0  0  0  0
    9.2974   44.3884  129.4245 O   0  0  0  0  0  0  0  0  0  0  0  0
   10.6449   45.9272  128.4324 O   0  0  0  0  0  0  0  0  0  0  0  0
    8.8315   44.5907  130.3051 H   0  0  0  0  0  0  0  0  0  0  0  0
    8.2379   45.5891  133.3143 C   0  0  0  0  0  0  0  0  0  0  0  0
    9.0527   46.6113  134.0828 C   0  0  0  0  0  0  0  0  0  0  0  0
    9.4645   46.1194  135.4453 C   0  0  0  0  0  0  0  0  0  0  0  0
 28 29  1  0  0  0
 29 30  1  0  0  0
 29  1  1  0  0  0
  1  2  1  0  0  0
  2  3  1  0  0  0
  3  4  2  0  0  0
  3  6  1  0  0  0
  6  7  1  0  0  0
  7  8  1  0  0  0
  8  9  2  0  0  0
  9 10  1  0  0  0
 10 11  2  0  0  0
 11 12  1  0  0  0
 12 13  2  0  0  0
  1 14  1  0  0  0
 14 15  2  0  0  0
 14 16  1  0  0  0
 16 18  1  0  0  0
 18 23  1  0  0  0
 23 24  1  0  0  0
 24 25  1  0  0  0
 24 26  2  0  0  0
 18 19  1  0  0  0
 19 20  2  0  0  0
 19 21  1  0  0  0
 21 22  1  0  0  0
 13  8  1  0  0  0
  2  5  1  0  0  0
 16 17  1  0  0  0
 25 27  1  0  0  0
M  END
> <minimizedAffinity>
-7.31814

> <CNNscore>
0.1745584756

> <CNNaffinity>
6.1849584579

> <CNN_VS>
1.0796369314

> <CNNaffinity_variance>
0.5015627146

$$$$
[H]OC(=O)C([H])([H])C([H])(C(=O)C([H])([H])F)N([H])C(=O)[C@@]([H])(N([H])C(=O)OC([H])([H])c1c([H])c([H])c([H])c([H])c1[H])C([H])(C([H])([H])[H])C([H])([H])[H]


 30 30  0  0  0  0  0  0  0  0999 V2000
    8.8507   44.3142  130.2395 C   0  0  0  0  0  0  0  0  0  0  0  0
    8.1040   45.2013  129.3703 N   0  0  0  0  0  0  0  0  0  0  0  0
    7.0831   46.0616  129.8000 C   0  0  0  0  0  0  0  0  0  0  0  0
    6.7654   46.0991  131.0045 O   0  0  0  0  0  0  0  0  0  0  0  0
    8.3523   45.1897  128.3600 H   0  0  0  0  0  0  0  0  0  0  0  0
    6.4243   46.8688  128.9071 O   0  0  0  0  0  0  0  0  0  0  0  0
    6.8085   48.1642  128.5329 C   0  0  0  0  0  0  0  0  0  0  0  0
    7.7293   48.8274  129.4804 C   0  0  0  0  0  0  0  0  0  0  0  0
    7.2931   49.8652  130.2962 C   0  0  0  0  0  0  0  0  0  0  0  0
    8.1388   50.4825  131.1791 C   0  0  0  0  0  0  0  0  0  0  0  0
    9.4476   50.1028  131.2945 C   0  0  0  0  0  0  0  0  0  0  0  0
    9.9100   49.0875  130.5094 C   0  0  0  0  0  0  0  0  0  0  0  0
    9.0509   48.4631  129.6150 C   0  0  0  0  0  0  0  0  0  0  0  0
    9.8761   45.0182  131.0148 C   0  0  0  0  0  0  0  0  0  0  0  0
   10.9144   45.4021  130.3948 O   0  0  0  0  0  0  0  0  0  0  0  0
    9.7876   45.2968  132.3935 N   0  0  0  0  0  0  0  0  0  0  0  0
    8.9551   44.9886  132.9153 H   0  0  0  0  0  0  0  0  0  0  0  0
   10.8280   46.0117  133.1481 C   0  0  0  0  0  0  0  0  0  0  0  0
   10.2757   47.2655  133.7051 C   0  0  0  0  0  0  0  0  0  0  0  0
   11.0350   48.1870  134.0757 O   0  0  0  0  0  0  0  0  0  0  0  0
    8.8353   47.5745  133.8920 C   0  0  0  0  0  0  0  0  0  0  0  0
    8.4148   46.6981  134.9204 F   0  0  0  0  0  0  0  0  0  0  0  0
   11.3087   45.0226  134.1862 C   0  0  0  0  0  0  0  0  0  0  0  0
   11.4658   43.6480  133.7248 C   0  0  0  0  0  0  0  0  0  0  0  0
   12.6902   43.1930  133.2838 O   0  0  0  0  0  0  0  0  0  0  0  0
   10.4840   42.8699  133.7268 O   0  0  0  0  0  0  0  0  0  0  0  0
   13.4060   42.8834  133.9359 H   0  0  0  0  0  0  0  0  0  0  0  0
    9.9165   43.5028  128.1296 C   0  0  0  0  0  0  0  0  0  0  0  0
    9.3824   43.1300  129.4990 C   0  0  0  0  0  0  0  0  0  0  0  0
   10.3659   42.3239  130.3057 C   0  0  0  0  0  0  0  0  0  0  0  0
 28 29  1  0  0  0
 29 30  1  0  0  0
 29  1  1  0  0  0
  1  2  1  0  0  0
  2  3  1  0  0  0
  3  4  2  0  0  0
  3  6  1  0  0  0
  6  7  1  0  0  0
  7  8  1  0  0  0
  8  9  2  0  0  0
  9 10  1  0  0  0
 10 11  2  0  0  0
 11 12  1  0  0  0
 12 13  2  0  0  0
  1 14  1  0  0  0
 14 15  2  0  0  0
 14 16  1  0  0  0
 16 18  1  0  0  0
 18 23  1  0  0  0
 23 24  1  0  0  0
 24 25  1  0  0  0
 24 26  2  0  0  0
 18 19  1  0  0  0
 19 20  2  0  0  0
 19 21  1  0  0  0
 21 22  1  0  0  0
 13  8  1  0  0  0
  2  5  1  0  0  0
 16 17  1  0  0  0
 25 27  1  0  0  0
M  END
> <minimizedAffinity>
-7.07254

> <CNNscore>
0.1621609330

> <CNNaffinity>
6.3511872292

> <CNN_VS>
1.0299144983

> <CNNaffinity_variance>
0.2405422479

$$$$
[H]OC(=O)C([H])([H])C([H])(C(=O)C([H])([H])F)N([H])C(=O)[C@@]([H])(N([H])C(=O)OC([H])([H])c1c([H])c([H])c([H])c([H])c1[H])C([H])(C([H])([H])[H])C([H])([H])[H]


 30 30  0  0  0  0  0  0  0  0999 V2000
    9.6007   45.3482  129.7393 C   0  0  0  0  0  0  0  0  0  0  0  0
   10.4389   44.9381  130.8480 N   0  0  0  0  0  0  0  0  0  0  0  0
   11.8013   44.6232  130.7404 C   0  0  0  0  0  0  0  0  0  0  0  0
   12.3709   44.6896  129.6339 O   0  0  0  0  0  0  0  0  0  0  0  0
    9.9865   44.8770  131.7829 H   0  0  0  0  0  0  0  0  0  0  0  0
   12.5217   44.2407  131.8438 O   0  0  0  0  0  0  0  0  0  0  0  0
   11.9926   43.9463  133.1083 C   0  0  0  0  0  0  0  0  0  0  0  0
   10.9396   44.8788  133.5636 C   0  0  0  0  0  0  0  0  0  0  0  0
   11.2161   46.2250  133.7735 C   0  0  0  0  0  0  0  0  0  0  0  0
   10.2456   47.0960  134.1918 C   0  0  0  0  0  0  0  0  0  0  0  0
    8.9639   46.6769  134.4200 C   0  0  0  0  0  0  0  0  0  0  0  0
    8.6566   45.3623  134.2239 C   0  0  0  0  0  0  0  0  0  0  0  0
    9.6421   44.4810  133.7999 C   0  0  0  0  0  0  0  0  0  0  0  0
    8.7889   46.5272  130.0540 C   0  0  0  0  0  0  0  0  0  0  0  0
    8.0664   46.4763  131.0957 O   0  0  0  0  0  0  0  0  0  0  0  0
    8.7570   47.7069  129.2835 N   0  0  0  0  0  0  0  0  0  0  0  0
    9.3323   47.7655  128.4314 H   0  0  0  0  0  0  0  0  0  0  0  0
    7.9386   48.8803  129.6245 C   0  0  0  0  0  0  0  0  0  0  0  0
    6.5236   48.6269  129.2764 C   0  0  0  0  0  0  0  0  0  0  0  0
    5.6477   49.4901  129.5014 O   0  0  0  0  0  0  0  0  0  0  0  0
    5.9882   47.3878  128.6574 C   0  0  0  0  0  0  0  0  0  0  0  0
    5.0905   46.8691  129.6205 F   0  0  0  0  0  0  0  0  0  0  0  0
    8.1892   49.1183  131.0969 C   0  0  0  0  0  0  0  0  0  0  0  0
    9.4901   49.6852  131.4332 C   0  0  0  0  0  0  0  0  0  0  0  0
    9.7419   50.1549  132.7047 O   0  0  0  0  0  0  0  0  0  0  0  0
   10.3900   49.7487  130.5639 O   0  0  0  0  0  0  0  0  0  0  0  0
   10.0032   49.5257  133.4592 H   0  0  0  0  0  0  0  0  0  0  0  0
    9.4371   43.5902  127.9705 C   0  0  0  0  0  0  0  0  0  0  0  0
    8.7987   44.2087  129.1990 C   0  0  0  0  0  0  0  0  0  0  0  0
    8.4475   43.1864  130.2475 C   0  0  0  0  0  0  0  0  0  0  0  0
 28 29  1  0  0  0
 29 30  1  0  0  0
 29  1  1  0  0  0
  1  2  1  0  0  0
  2  3  1  0  0  0
  3  4  2  0  0  0
  3  6  1  0  0  0
  6  7  1  0  0  0
  7  8  1  0  0  0
  8  9  2  0  0  0
  9 10  1  0  0  0
 10 11  2  0  0  0
 11 12  1  0  0  0
 12 13  2  0  0  0
  1 14  1  0  0  0
 14 15  2  0  0  0
 14 16  1  0  0  0
 16 18  1  0  0  0
 18 23  1  0  0  0
 23 24  1  0  0  0
 24 25  1  0  0  0
 24 26  2  0  0  0
 18 19  1  0  0  0
 19 20  2  0  0  0
 19 21  1  0  0  0
 21 22  1  0  0  0
 13  8  1  0  0  0
  2  5  1  0  0  0
 16 17  1  0  0  0
 25 27  1  0  0  0
M  END
> <minimizedAffinity>
-7.47892

> <CNNscore>
0.1358721703

> <CNNaffinity>
6.4815039635

> <CNN_VS>
0.8806560040

> <CNNaffinity_variance>
0.1012100354

$$$$
[H]OC(=O)C([H])([H])C([H])(C(=O)C([H])([H])F)N([H])C(=O)[C@@]([H])(N([H])C(=O)OC([H])([H])c1c([H])c([H])c([H])c([H])c1[H])C([H])(C([H])([H])[H])C([H])([H])[H]


 30 30  0  0  0  0  0  0  0  0999 V2000
   10.1267   47.0648  132.8995 C   0  0  0  0  0  0  0  0  0  0  0  0
    9.6077   48.0200  131.9412 N   0  0  0  0  0  0  0  0  0  0  0  0
    9.6048   49.4102  132.1264 C   0  0  0  0  0  0  0  0  0  0  0  0
   10.0732   49.9007  133.1720 O   0  0  0  0  0  0  0  0  0  0  0  0
    9.2129   47.6349  131.0590 H   0  0  0  0  0  0  0  0  0  0  0  0
    9.0904   50.2444  131.1661 O   0  0  0  0  0  0  0  0  0  0  0  0
    8.8799   49.9150  129.8196 C   0  0  0  0  0  0  0  0  0  0  0  0
    7.6777   49.0913  129.5716 C   0  0  0  0  0  0  0  0  0  0  0  0
    7.7814   47.7261  129.3302 C   0  0  0  0  0  0  0  0  0  0  0  0
    6.6724   46.9553  129.1030 C   0  0  0  0  0  0  0  0  0  0  0  0
    5.4168   47.4974  129.1045 C   0  0  0  0  0  0  0  0  0  0  0  0
    5.2774   48.8342  129.3381 C   0  0  0  0  0  0  0  0  0  0  0  0
    6.4031   49.6138  129.5681 C   0  0  0  0  0  0  0  0  0  0  0  0
   10.8116   45.9394  132.2574 C   0  0  0  0  0  0  0  0  0  0  0  0
   12.0756   45.8926  132.3573 O   0  0  0  0  0  0  0  0  0  0  0  0
   10.1658   44.9113  131.5416 N   0  0  0  0  0  0  0  0  0  0  0  0
    9.1409   44.9346  131.4449 H   0  0  0  0  0  0  0  0  0  0  0  0
   10.8757   43.7878  130.9117 C   0  0  0  0  0  0  0  0  0  0  0  0
   11.7903   44.2923  129.8647 C   0  0  0  0  0  0  0  0  0  0  0  0
   13.0293   44.2489  130.0261 O   0  0  0  0  0  0  0  0  0  0  0  0
   11.3832   44.8859  128.5658 C   0  0  0  0  0  0  0  0  0  0  0  0
   10.4658   43.9555  128.0223 F   0  0  0  0  0  0  0  0  0  0  0  0
   11.5627   43.0697  132.0517 C   0  0  0  0  0  0  0  0  0  0  0  0
   10.8144   43.0070  133.3020 C   0  0  0  0  0  0  0  0  0  0  0  0
    9.5248   42.5199  133.3226 O   0  0  0  0  0  0  0  0  0  0  0  0
   11.3423   43.3976  134.3688 O   0  0  0  0  0  0  0  0  0  0  0  0
    9.3367   41.5212  133.3495 H   0  0  0  0  0  0  0  0  0  0  0  0
    8.0882   45.6666  133.2676 C   0  0  0  0  0  0  0  0  0  0  0  0
    9.0812   46.6367  133.8778 C   0  0  0  0  0  0  0  0  0  0  0  0
    9.6585   46.1365  135.1756 C   0  0  0  0  0  0  0  0  0  0  0  0
 28 29  1  0  0  0
 29 30  1  0  0  0
 29  1  1  0  0  0
  1  2  1  0  0  0
  2  3  1  0  0  0
  3  4  2  0  0  0
  3  6  1  0  0  0
  6  7  1  0  0  0
  7  8  1  0  0  0
  8  9  2  0  0  0
  9 10  1  0  0  0
 10 11  2  0  0  0
 11 12  1  0  0  0
 12 13  2  0  0  0
  1 14  1  0  0  0
 14 15  2  0  0  0
 14 16  1  0  0  0
 16 18  1  0  0  0
 18 23  1  0  0  0
 23 24  1  0  0  0
 24 25  1  0  0  0
 24 26  2  0  0  0
 18 19  1  0  0  0
 19 20  2  0  0  0
 19 21  1  0  0  0
 21 22  1  0  0  0
 13  8  1  0  0  0
  2  5  1  0  0  0
 16 17  1  0  0  0
 25 27  1  0  0  0
M  END
> <minimizedAffinity>
-7.22349

> <CNNscore>
0.1261886805

> <CNNaffinity>
6.1191086769

> <CNN_VS>
0.7721622586

> <CNNaffinity_variance>
0.3561581373

$$$$
[H]c1nc(N([H])c2c([H])c([H])c(N3C([H])([H])C([H])([H])C([H])(N4C([H])([H])C([H])([H])N([H])[C@@]([H])(C([H])([H])[H])C4([H])[H])C([H])([H])C3([H])[H])c([H])c2OC([H])([H])[H])nc(N([H])c2c([H])c([H])c([H])c([H])c2S(=O)(=O)C([H])(C([H])([H])[H])C([H])([H])[H])c1Cl


 45 49  0  0  0  0  0  0  0  0999 V2000
    7.3582   49.7600  127.6230 N   0  0  0  0  0  0  0  0  0  0  0  0
    7.1995   49.4817  126.5852 H   0  0  0  0  0  0  0  0  0  0  0  0
    7.2083   51.1438  127.8638 C   0  0  0  0  0  0  0  0  0  0  0  0
    7.0383   51.7265  129.0559 N   0  0  0  0  0  0  0  0  0  0  0  0
    6.9114   53.0381  129.2515 C   0  0  0  0  0  0  0  0  0  0  0  0
    6.9564   53.8734  128.1590 C   0  0  0  0  0  0  0  0  0  0  0  0
    6.7945   55.5846  128.3473 Cl  0  0  0  0  0  0  0  0  0  0  0  0
    7.1320   53.3279  126.8873 C   0  0  0  0  0  0  0  0  0  0  0  0
    7.2445   52.0255  126.8186 N   0  0  0  0  0  0  0  0  0  0  0  0
    7.1836   54.1864  125.7524 N   0  0  0  0  0  0  0  0  0  0  0  0
    7.9691   53.9255  125.0533 H   0  0  0  0  0  0  0  0  0  0  0  0
    6.4130   55.2725  125.3905 C   0  0  0  0  0  0  0  0  0  0  0  0
    5.1192   55.4352  125.8181 C   0  0  0  0  0  0  0  0  0  0  0  0
    4.3498   56.5384  125.4219 C   0  0  0  0  0  0  0  0  0  0  0  0
    4.8970   57.4706  124.5941 C   0  0  0  0  0  0  0  0  0  0  0  0
    6.2045   57.3000  124.1664 C   0  0  0  0  0  0  0  0  0  0  0  0
    6.9766   56.2302  124.5405 C   0  0  0  0  0  0  0  0  0  0  0  0
    8.6020   56.0958  123.9488 S   0  0  0  0  0  0  0  0  0  0  0  0
    9.0183   54.6415  124.0738 O   0  0  0  0  0  0  0  0  0  0  0  0
    9.5699   57.0218  124.6360 O   0  0  0  0  0  0  0  0  0  0  0  0
    8.6480   56.5322  122.2268 C   0  0  0  0  0  0  0  0  0  0  0  0
   10.0730   56.4739  121.7396 C   0  0  0  0  0  0  0  0  0  0  0  0
    7.8766   55.4561  121.4255 C   0  0  0  0  0  0  0  0  0  0  0  0
    6.6783   47.8268  128.8728 C   0  0  0  0  0  0  0  0  0  0  0  0
    6.9803   46.8309  129.7639 C   0  0  0  0  0  0  0  0  0  0  0  0
    8.2044   46.6932  130.3641 C   0  0  0  0  0  0  0  0  0  0  0  0
    9.1839   47.6078  130.0534 C   0  0  0  0  0  0  0  0  0  0  0  0
    8.8895   48.6396  129.1385 C   0  0  0  0  0  0  0  0  0  0  0  0
    7.6736   48.7736  128.5434 C   0  0  0  0  0  0  0  0  0  0  0  0
    8.5222   45.6317  131.3033 N   0  0  0  0  0  0  0  0  0  0  0  0
    9.3772   44.5453  130.9364 C   0  0  0  0  0  0  0  0  0  0  0  0
    9.1451   43.2222  131.5868 C   0  0  0  0  0  0  0  0  0  0  0  0
    8.2360   43.2953  132.7454 C   0  0  0  0  0  0  0  0  0  0  0  0
    8.4695   44.6075  133.4843 C   0  0  0  0  0  0  0  0  0  0  0  0
    7.9734   45.7245  132.6258 C   0  0  0  0  0  0  0  0  0  0  0  0
    8.2331   42.1921  133.6340 N   0  0  0  0  0  0  0  0  0  0  0  0
    9.5423   41.7067  134.0195 C   0  0  0  0  0  0  0  0  0  0  0  0
    9.3623   40.6044  135.0702 C   0  0  0  0  0  0  0  0  0  0  0  0
    8.0480   40.7501  135.6659 N   0  0  0  0  0  0  0  0  0  0  0  0
    7.0767   40.3832  134.6387 C   0  0  0  0  0  0  0  0  0  0  0  0
    5.7456   40.9423  135.1251 C   0  0  0  0  0  0  0  0  0  0  0  0
    7.4078   41.0839  133.3120 C   0  0  0  0  0  0  0  0  0  0  0  0
    7.9559   41.7596  135.9428 H   0  0  0  0  0  0  0  0  0  0  0  0
    4.2864   47.5851  129.0482 C   0  0  0  0  0  0  0  0  0  0  0  0
    5.4135   47.9325  128.2798 O   0  0  0  0  0  0  0  0  0  0  0  0
 44 45  1  0  0  0
 45 24  1  0  0  0
 24 25  2  0  0  0
 25 26  1  0  0  0
 26 27  2  0  0  0
 27 28  1  0  0  0
 28 29  2  0  0  0
 29  1  1  0  0  0
  1  3  1  0  0  0
  3  4  2  0  0  0
  4  5  1  0  0  0
  5  6  2  0  0  0
  6  7  1  0  0  0
  6  8  1  0  0  0
  8 10  1  0  0  0
 10 12  1  0  0  0
 12 13  2  0  0  0
 13 14  1  0  0  0
 14 15  2  0  0  0
 15 16  1  0  0  0
 16 17  2  0  0  0
 17 18  1  0  0  0
 18 19  2  0  0  0
 18 20  2  0  0  0
 18 21  1  0  0  0
 21 22  1  0  0  0
 21 23  1  0  0  0
  8  9  2  0  0  0
 26 30  1  0  0  0
 30 31  1  0  0  0
 31 32  1  0  0  0
 32 33  1  0  0  0
 33 34  1  0  0  0
 34 35  1  0  0  0
 33 36  1  0  0  0
 36 37  1  0  0  0
 37 38  1  0  0  0
 38 39  1  0  0  0
 39 40  1  0  0  0
 40 41  1  0  0  0
 40 42  1  0  0  0
 29 24  1  0  0  0
  9  3  1  0  0  0
 35 30  1  0  0  0
 42 36  1  0  0  0
 17 12  1  0  0  0
  1  2  1  0  0  0
 10 11  1  0  0  0
 39 43  1  0  0  0
M  END
> <minimizedAffinity>
25.60093

> <CNNscore>
0.4386050999

> <CNNaffinity>
7.5498719215

> <CNN_VS>
3.3114123344

> <CNNaffinity_variance>
0.8719797134

$$$$
[H]c1nc(N([H])c2c([H])c([H])c(N3C([H])([H])C([H])([H])C([H])(N4C([H])([H])C([H])([H])N([H])[C@@]([H])(C([H])([H])[H])C4([H])[H])C([H])([H])C3([H])[H])c([H])c2OC([H])([H])[H])nc(N([H])c2c([H])c([H])c([H])c([H])c2S(=O)(=O)C([H])(C([H])([H])[H])C([H])([H])[H])c1Cl


 45 49  0  0  0  0  0  0  0  0999 V2000
    6.2450   51.7133  127.9616 N   0  0  0  0  0  0  0  0  0  0  0  0
    5.2357   51.4274  127.6803 H   0  0  0  0  0  0  0  0  0  0  0  0
    6.5633   53.0500  127.6339 C   0  0  0  0  0  0  0  0  0  0  0  0
    7.3572   53.8693  128.3324 N   0  0  0  0  0  0  0  0  0  0  0  0
    7.6476   55.1236  127.9900 C   0  0  0  0  0  0  0  0  0  0  0  0
    7.1010   55.6333  126.8348 C   0  0  0  0  0  0  0  0  0  0  0  0
    7.4374   57.2552  126.3383 Cl  0  0  0  0  0  0  0  0  0  0  0  0
    6.2645   54.8291  126.0607 C   0  0  0  0  0  0  0  0  0  0  0  0
    6.0511   53.6138  126.4976 N   0  0  0  0  0  0  0  0  0  0  0  0
    5.6983   55.3485  124.8617 N   0  0  0  0  0  0  0  0  0  0  0  0
    5.5687   56.4239  124.8800 H   0  0  0  0  0  0  0  0  0  0  0  0
    5.2989   54.7291  123.6950 C   0  0  0  0  0  0  0  0  0  0  0  0
    4.1364   54.0056  123.6037 C   0  0  0  0  0  0  0  0  0  0  0  0
    3.7607   53.3697  122.4119 C   0  0  0  0  0  0  0  0  0  0  0  0
    4.5664   53.4711  121.3190 C   0  0  0  0  0  0  0  0  0  0  0  0
    5.7389   54.2037  121.4184 C   0  0  0  0  0  0  0  0  0  0  0  0
    6.1272   54.8346  122.5725 C   0  0  0  0  0  0  0  0  0  0  0  0
    7.6166   55.7237  122.6056 S   0  0  0  0  0  0  0  0  0  0  0  0
    7.4983   56.7793  123.6899 O   0  0  0  0  0  0  0  0  0  0  0  0
    7.9900   56.3200  121.2746 O   0  0  0  0  0  0  0  0  0  0  0  0
    8.9512   54.6355  123.0444 C   0  0  0  0  0  0  0  0  0  0  0  0
   10.2528   55.2365  122.5795 C   0  0  0  0  0  0  0  0  0  0  0  0
    9.0399   54.5627  124.5878 C   0  0  0  0  0  0  0  0  0  0  0  0
    7.0148   50.6799  129.9867 C   0  0  0  0  0  0  0  0  0  0  0  0
    7.7987   49.7461  130.6114 C   0  0  0  0  0  0  0  0  0  0  0  0
    8.6373   48.8900  129.9468 C   0  0  0  0  0  0  0  0  0  0  0  0
    8.6940   48.9750  128.5749 C   0  0  0  0  0  0  0  0  0  0  0  0
    7.8939   49.9312  127.9162 C   0  0  0  0  0  0  0  0  0  0  0  0
    7.0617   50.7794  128.5784 C   0  0  0  0  0  0  0  0  0  0  0  0
    9.4617   47.8968  130.6128 N   0  0  0  0  0  0  0  0  0  0  0  0
    9.9952   46.7756  129.9026 C   0  0  0  0  0  0  0  0  0  0  0  0
   10.2111   45.5072  130.6589 C   0  0  0  0  0  0  0  0  0  0  0  0
   10.1106   45.6771  132.1202 C   0  0  0  0  0  0  0  0  0  0  0  0
   10.6785   47.0372  132.5073 C   0  0  0  0  0  0  0  0  0  0  0  0
    9.7504   48.0939  132.0045 C   0  0  0  0  0  0  0  0  0  0  0  0
   10.6431   44.6426  132.9283 N   0  0  0  0  0  0  0  0  0  0  0  0
   11.9749   44.8855  133.4435 C   0  0  0  0  0  0  0  0  0  0  0  0
   12.3471   43.7378  134.3898 C   0  0  0  0  0  0  0  0  0  0  0  0
   11.1253   43.0875  134.8233 N   0  0  0  0  0  0  0  0  0  0  0  0
   10.5843   42.3889  133.6604 C   0  0  0  0  0  0  0  0  0  0  0  0
    9.1321   42.0894  134.0103 C   0  0  0  0  0  0  0  0  0  0  0  0
   10.5760   43.3144  132.4340 C   0  0  0  0  0  0  0  0  0  0  0  0
   10.4811   43.8504  135.1510 H   0  0  0  0  0  0  0  0  0  0  0  0
    4.8254   51.1551  130.8763 C   0  0  0  0  0  0  0  0  0  0  0  0
    6.1692   51.5368  130.7032 O   0  0  0  0  0  0  0  0  0  0  0  0
 44 45  1  0  0  0
 45 24  1  0  0  0
 24 25  2  0  0  0
 25 26  1  0  0  0
 26 27  2  0  0  0
 27 28  1  0  0  0
 28 29  2  0  0  0
 29  1  1  0  0  0
  1  3  1  0  0  0
  3  4  2  0  0  0
  4  5  1  0  0  0
  5  6  2  0  0  0
  6  7  1  0  0  0
  6  8  1  0  0  0
  8 10  1  0  0  0
 10 12  1  0  0  0
 12 13  2  0  0  0
 13 14  1  0  0  0
 14 15  2  0  0  0
 15 16  1  0  0  0
 16 17  2  0  0  0
 17 18  1  0  0  0
 18 19  2  0  0  0
 18 20  2  0  0  0
 18 21  1  0  0  0
 21 22  1  0  0  0
 21 23  1  0  0  0
  8  9  2  0  0  0
 26 30  1  0  0  0
 30 31  1  0  0  0
 31 32  1  0  0  0
 32 33  1  0  0  0
 33 34  1  0  0  0
 34 35  1  0  0  0
 33 36  1  0  0  0
 36 37  1  0  0  0
 37 38  1  0  0  0
 38 39  1  0  0  0
 39 40  1  0  0  0
 40 41  1  0  0  0
 40 42  1  0  0  0
 29 24  1  0  0  0
  9  3  1  0  0  0
 35 30  1  0  0  0
 42 36  1  0  0  0
 17 12  1  0  0  0
  1  2  1  0  0  0
 10 11  1  0  0  0
 39 43  1  0  0  0
M  END
> <minimizedAffinity>
9.53967

> <CNNscore>
0.4277185202

> <CNNaffinity>
7.7055425644

> <CNN_VS>
3.2958033085

> <CNNaffinity_variance>
0.6482020020

$$$$
[H]c1nc(N([H])c2c([H])c([H])c(N3C([H])([H])C([H])([H])C([H])(N4C([H])([H])C([H])([H])N([H])[C@@]([H])(C([H])([H])[H])C4([H])[H])C([H])([H])C3([H])[H])c([H])c2OC([H])([H])[H])nc(N([H])c2c([H])c([H])c([H])c([H])c2S(=O)(=O)C([H])(C([H])([H])[H])C([H])([H])[H])c1Cl


 45 49  0  0  0  0  0  0  0  0999 V2000
    6.4706   52.4550  128.3719 N   0  0  0  0  0  0  0  0  0  0  0  0
    5.5308   52.7869  128.8035 H   0  0  0  0  0  0  0  0  0  0  0  0
    7.0573   53.4027  127.5042 C   0  0  0  0  0  0  0  0  0  0  0  0
    8.3027   53.8847  127.5831 N   0  0  0  0  0  0  0  0  0  0  0  0
    8.8314   54.7710  126.7407 C   0  0  0  0  0  0  0  0  0  0  0  0
    8.0554   55.2377  125.7047 C   0  0  0  0  0  0  0  0  0  0  0  0
    8.6833   56.3912  124.5798 Cl  0  0  0  0  0  0  0  0  0  0  0  0
    6.7472   54.7737  125.5666 C   0  0  0  0  0  0  0  0  0  0  0  0
    6.3368   53.9042  126.4549 N   0  0  0  0  0  0  0  0  0  0  0  0
    5.9395   55.2491  124.4946 N   0  0  0  0  0  0  0  0  0  0  0  0
    5.9427   56.3285  124.4018 H   0  0  0  0  0  0  0  0  0  0  0  0
    5.1705   54.5824  123.5625 C   0  0  0  0  0  0  0  0  0  0  0  0
    5.6911   54.0895  122.3924 C   0  0  0  0  0  0  0  0  0  0  0  0
    4.8858   53.4315  121.4519 C   0  0  0  0  0  0  0  0  0  0  0  0
    3.5567   53.2772  121.7035 C   0  0  0  0  0  0  0  0  0  0  0  0
    3.0377   53.7774  122.8875 C   0  0  0  0  0  0  0  0  0  0  0  0
    3.8051   54.4238  123.8224 C   0  0  0  0  0  0  0  0  0  0  0  0
    3.0666   55.0236  125.2733 S   0  0  0  0  0  0  0  0  0  0  0  0
    2.4711   56.3837  124.9580 O   0  0  0  0  0  0  0  0  0  0  0  0
    4.0067   55.0768  126.4480 O   0  0  0  0  0  0  0  0  0  0  0  0
    1.7406   53.9444  125.7579 C   0  0  0  0  0  0  0  0  0  0  0  0
    2.2904   52.5616  125.9968 C   0  0  0  0  0  0  0  0  0  0  0  0
    1.1863   54.4265  127.1201 C   0  0  0  0  0  0  0  0  0  0  0  0
    6.6870   50.7047  130.0001 C   0  0  0  0  0  0  0  0  0  0  0  0
    7.1432   49.4584  130.3400 C   0  0  0  0  0  0  0  0  0  0  0  0
    7.8569   48.6526  129.4921 C   0  0  0  0  0  0  0  0  0  0  0  0
    8.1302   49.1238  128.2288 C   0  0  0  0  0  0  0  0  0  0  0  0
    7.6685   50.4049  127.8629 C   0  0  0  0  0  0  0  0  0  0  0  0
    6.9594   51.2025  128.7064 C   0  0  0  0  0  0  0  0  0  0  0  0
    8.3328   47.3290  129.8545 N   0  0  0  0  0  0  0  0  0  0  0  0
    7.4772   46.3819  130.5001 C   0  0  0  0  0  0  0  0  0  0  0  0
    8.1019   45.3937  131.4278 C   0  0  0  0  0  0  0  0  0  0  0  0
    9.5723   45.3492  131.3258 C   0  0  0  0  0  0  0  0  0  0  0  0
    9.9814   45.5710  129.8747 C   0  0  0  0  0  0  0  0  0  0  0  0
    9.6851   46.9901  129.5149 C   0  0  0  0  0  0  0  0  0  0  0  0
   10.2240   44.2215  131.8828 N   0  0  0  0  0  0  0  0  0  0  0  0
   10.0060   42.9734  131.1806 C   0  0  0  0  0  0  0  0  0  0  0  0
   10.8733   41.8904  131.8332 C   0  0  0  0  0  0  0  0  0  0  0  0
   11.9395   42.5405  132.5708 N   0  0  0  0  0  0  0  0  0  0  0  0
   11.3187   43.1966  133.7185 C   0  0  0  0  0  0  0  0  0  0  0  0
   12.3518   44.1997  134.2162 C   0  0  0  0  0  0  0  0  0  0  0  0
   10.0834   43.9961  133.2765 C   0  0  0  0  0  0  0  0  0  0  0  0
   12.3744   43.2372  131.9151 H   0  0  0  0  0  0  0  0  0  0  0  0
    4.6374   51.1193  131.1992 C   0  0  0  0  0  0  0  0  0  0  0  0
    5.9591   51.4977  130.8967 O   0  0  0  0  0  0  0  0  0  0  0  0
 44 45  1  0  0  0
 45 24  1  0  0  0
 24 25  2  0  0  0
 25 26  1  0  0  0
 26 27  2  0  0  0
 27 28  1  0  0  0
 28 29  2  0  0  0
 29  1  1  0  0  0
  1  3  1  0  0  0
  3  4  2  0  0  0
  4  5  1  0  0  0
  5  6  2  0  0  0
  6  7  1  0  0  0
  6  8  1  0  0  0
  8 10  1  0  0  0
 10 12  1  0  0  0
 12 13  2  0  0  0
 13 14  1  0  0  0
 14 15  2  0  0  0
 15 16  1  0  0  0
 16 17  2  0  0  0
 17 18  1  0  0  0
 18 19  2  0  0  0
 18 20  2  0  0  0
 18 21  1  0  0  0
 21 22  1  0  0  0
 21 23  1  0  0  0
  8  9  2  0  0  0
 26 30  1  0  0  0
 30 31  1  0  0  0
 31 32  1  0  0  0
 32 33  1  0  0  0
 33 34  1  0  0  0
 34 35  1  0  0  0
 33 36  1  0  0  0
 36 37  1  0  0  0
 37 38  1  0  0  0
 38 39  1  0  0  0
 39 40  1  0  0  0
 40 41  1  0  0  0
 40 42  1  0  0  0
 29 24  1  0  0  0
  9  3  1  0  0  0
 35 30  1  0  0  0
 42 36  1  0  0  0
 17 12  1  0  0  0
  1  2  1  0  0  0
 10 11  1  0  0  0
 39 43  1  0  0  0
M  END
> <minimizedAffinity>
4.02705

> <CNNscore>
0.3640048504

> <CNNaffinity>
7.5624341965

> <CNN_VS>
2.7527627945

> <CNNaffinity_variance>
0.5118541718

$$$$
[H]c1nc(N([H])c2c([H])c([H])c(N3C([H])([H])C([H])([H])C([H])(N4C([H])([H])C([H])([H])N([H])[C@@]([H])(C([H])([H])[H])C4([H])[H])C([H])([H])C3([H])[H])c([H])c2OC([H])([H])[H])nc(N([H])c2c([H])c([H])c([H])c([H])c2S(=O)(=O)C([H])(C([H])([H])[H])C([H])([H])[H])c1Cl


 45 49  0  0  0  0  0  0  0  0999 V2000
    6.4065   52.0396  128.1957 N   0  0  0  0  0  0  0  0  0  0  0  0
    5.3391   51.9932  128.0006 H   0  0  0  0  0  0  0  0  0  0  0  0
    7.0363   53.1631  127.6158 C   0  0  0  0  0  0  0  0  0  0  0  0
    7.2699   54.3368  128.2138 N   0  0  0  0  0  0  0  0  0  0  0  0
    7.8779   55.3753  127.6423 C   0  0  0  0  0  0  0  0  0  0  0  0
    8.3059   55.2520  126.3405 C   0  0  0  0  0  0  0  0  0  0  0  0
    9.0987   56.5652  125.5424 Cl  0  0  0  0  0  0  0  0  0  0  0  0
    8.0928   54.0527  125.6608 C   0  0  0  0  0  0  0  0  0  0  0  0
    7.4844   53.1027  126.3247 N   0  0  0  0  0  0  0  0  0  0  0  0
    8.5366   53.9163  124.3146 N   0  0  0  0  0  0  0  0  0  0  0  0
    8.8384   52.9066  124.0633 H   0  0  0  0  0  0  0  0  0  0  0  0
    8.6404   54.8324  123.2878 C   0  0  0  0  0  0  0  0  0  0  0  0
    9.7748   55.5738  123.0715 C   0  0  0  0  0  0  0  0  0  0  0  0
    9.8499   56.5121  122.0324 C   0  0  0  0  0  0  0  0  0  0  0  0
    8.7739   56.6935  121.2182 C   0  0  0  0  0  0  0  0  0  0  0  0
    7.6315   55.9410  121.4423 C   0  0  0  0  0  0  0  0  0  0  0  0
    7.5343   55.0174  122.4513 C   0  0  0  0  0  0  0  0  0  0  0  0
    6.0604   54.1265  122.6609 S   0  0  0  0  0  0  0  0  0  0  0  0
    6.3550   52.9610  123.5875 O   0  0  0  0  0  0  0  0  0  0  0  0
    5.4417   53.6755  121.3645 O   0  0  0  0  0  0  0  0  0  0  0  0
    4.8465   55.1583  123.4480 C   0  0  0  0  0  0  0  0  0  0  0  0
    3.7224   54.2959  123.9618 C   0  0  0  0  0  0  0  0  0  0  0  0
    5.4897   55.8116  124.6949 C   0  0  0  0  0  0  0  0  0  0  0  0
    6.1920   49.9543  129.3648 C   0  0  0  0  0  0  0  0  0  0  0  0
    6.7640   48.9460  130.0949 C   0  0  0  0  0  0  0  0  0  0  0  0
    8.0858   48.9241  130.4560 C   0  0  0  0  0  0  0  0  0  0  0  0
    8.8814   49.9751  130.0625 C   0  0  0  0  0  0  0  0  0  0  0  0
    8.3084   51.0215  129.3109 C   0  0  0  0  0  0  0  0  0  0  0  0
    6.9960   51.0404  128.9531 C   0  0  0  0  0  0  0  0  0  0  0  0
    8.6895   47.8495  131.2245 N   0  0  0  0  0  0  0  0  0  0  0  0
    9.8841   48.0579  131.9831 C   0  0  0  0  0  0  0  0  0  0  0  0
   10.8081   46.9000  132.1645 C   0  0  0  0  0  0  0  0  0  0  0  0
   10.2093   45.6110  131.7718 C   0  0  0  0  0  0  0  0  0  0  0  0
    8.7280   45.6162  132.1297 C   0  0  0  0  0  0  0  0  0  0  0  0
    8.0292   46.5756  131.2229 C   0  0  0  0  0  0  0  0  0  0  0  0
   10.8508   44.4346  132.2316 N   0  0  0  0  0  0  0  0  0  0  0  0
   10.5985   43.2458  131.4433 C   0  0  0  0  0  0  0  0  0  0  0  0
   11.4579   42.1034  131.9977 C   0  0  0  0  0  0  0  0  0  0  0  0
   12.5484   42.6796  132.7609 N   0  0  0  0  0  0  0  0  0  0  0  0
   11.9596   43.2588  133.9655 C   0  0  0  0  0  0  0  0  0  0  0  0
   13.0188   44.2053  134.5163 C   0  0  0  0  0  0  0  0  0  0  0  0
   10.7309   44.1088  133.6072 C   0  0  0  0  0  0  0  0  0  0  0  0
   12.9838   43.4158  132.1503 H   0  0  0  0  0  0  0  0  0  0  0  0
    4.0734   48.8046  129.3532 C   0  0  0  0  0  0  0  0  0  0  0  0
    4.8356   49.9387  129.0150 O   0  0  0  0  0  0  0  0  0  0  0  0
 44 45  1  0  0  0
 45 24  1  0  0  0
 24 25  2  0  0  0
 25 26  1  0  0  0
 26 27  2  0  0  0
 27 28  1  0  0  0
 28 29  2  0  0  0
 29  1  1  0  0  0
  1  3  1  0  0  0
  3  4  2  0  0  0
  4  5  1  0  0  0
  5  6  2  0  0  0
  6  7  1  0  0  0
  6  8  1  0  0  0
  8 10  1  0  0  0
 10 12  1  0  0  0
 12 13  2  0  0  0
 13 14  1  0  0  0
 14 15  2  0  0  0
 15 16  1  0  0  0
 16 17  2  0  0  0
 17 18  1  0  0  0
 18 19  2  0  0  0
 18 20  2  0  0  0
 18 21  1  0  0  0
 21 22  1  0  0  0
 21 23  1  0  0  0
  8  9  2  0  0  0
 26 30  1  0  0  0
 30 31  1  0  0  0
 31 32  1  0  0  0
 32 33  1  0  0  0
 33 34  1  0  0  0
 34 35  1  0  0  0
 33 36  1  0  0  0
 36 37  1  0  0  0
 37 38  1  0  0  0
 38 39  1  0  0  0
 39 40  1  0  0  0
 40 41  1  0  0  0
 40 42  1  0  0  0
 29 24  1  0  0  0
  9  3  1  0  0  0
 35 30  1  0  0  0
 42 36  1  0  0  0
 17 12  1  0  0  0
  1  2  1  0  0  0
 10 11  1  0  0  0
 39 43  1  0  0  0
M  END
> <minimizedAffinity>
3.25995

> <CNNscore>
0.3307629526

> <CNNaffinity>
7.6433167458

> <CNN_VS>
2.5281260014

> <CNNaffinity_variance>
0.6066068411

$$$$
[H]c1nc(N([H])c2c([H])c([H])c(N3C([H])([H])C([H])([H])C([H])(N4C([H])([H])C([H])([H])N([H])[C@@]([H])(C([H])([H])[H])C4([H])[H])C([H])([H])C3([H])[H])c([H])c2OC([H])([H])[H])nc(N([H])c2c([H])c([H])c([H])c([H])c2S(=O)(=O)C([H])(C([H])([H])[H])C([H])([H])[H])c1Cl


 45 49  0  0  0  0  0  0  0  0999 V2000
    7.6614   47.3403  129.8052 N   0  0  0  0  0  0  0  0  0  0  0  0
    6.6791   47.6114  129.4296 H   0  0  0  0  0  0  0  0  0  0  0  0
    8.1990   48.2844  130.7081 C   0  0  0  0  0  0  0  0  0  0  0  0
    7.9736   49.6030  130.7029 N   0  0  0  0  0  0  0  0  0  0  0  0
    8.4873   50.4670  131.5771 C   0  0  0  0  0  0  0  0  0  0  0  0
    9.3134   49.9878  132.5676 C   0  0  0  0  0  0  0  0  0  0  0  0
   10.0136   51.0594  133.7302 Cl  0  0  0  0  0  0  0  0  0  0  0  0
    9.5879   48.6216  132.6282 C   0  0  0  0  0  0  0  0  0  0  0  0
    9.0269   47.8699  131.7152 N   0  0  0  0  0  0  0  0  0  0  0  0
   10.4387   48.1177  133.6530 N   0  0  0  0  0  0  0  0  0  0  0  0
   11.2653   48.7780  133.8866 H   0  0  0  0  0  0  0  0  0  0  0  0
   10.3892   46.9547  134.3941 C   0  0  0  0  0  0  0  0  0  0  0  0
    9.7639   46.8822  135.6135 C   0  0  0  0  0  0  0  0  0  0  0  0
    9.7427   45.6934  136.3567 C   0  0  0  0  0  0  0  0  0  0  0  0
   10.3562   44.5846  135.8589 C   0  0  0  0  0  0  0  0  0  0  0  0
   10.9857   44.6649  134.6266 C   0  0  0  0  0  0  0  0  0  0  0  0
   11.0193   45.8157  133.8813 C   0  0  0  0  0  0  0  0  0  0  0  0
   11.8383   45.8245  132.3519 S   0  0  0  0  0  0  0  0  0  0  0  0
   13.1254   46.6103  132.5237 O   0  0  0  0  0  0  0  0  0  0  0  0
   10.9968   46.3579  131.2231 O   0  0  0  0  0  0  0  0  0  0  0  0
   12.2687   44.1617  131.8961 C   0  0  0  0  0  0  0  0  0  0  0  0
   11.0146   43.3294  131.8196 C   0  0  0  0  0  0  0  0  0  0  0  0
   12.8585   44.1804  130.4654 C   0  0  0  0  0  0  0  0  0  0  0  0
    9.3905   46.2406  128.5553 C   0  0  0  0  0  0  0  0  0  0  0  0
    9.9922   45.0820  128.1401 C   0  0  0  0  0  0  0  0  0  0  0  0
    9.5454   43.8307  128.4755 C   0  0  0  0  0  0  0  0  0  0  0  0
    8.4291   43.7348  129.2738 C   0  0  0  0  0  0  0  0  0  0  0  0
    7.7972   44.9177  129.7094 C   0  0  0  0  0  0  0  0  0  0  0  0
    8.2434   46.1587  129.3757 C   0  0  0  0  0  0  0  0  0  0  0  0
   10.1906   42.6049  128.0386 N   0  0  0  0  0  0  0  0  0  0  0  0
   11.4680   42.6253  127.3954 C   0  0  0  0  0  0  0  0  0  0  0  0
   11.7674   41.5534  126.4009 C   0  0  0  0  0  0  0  0  0  0  0  0
   10.7979   40.4428  126.4333 C   0  0  0  0  0  0  0  0  0  0  0  0
   10.3541   40.2062  127.8718 C   0  0  0  0  0  0  0  0  0  0  0  0
    9.5166   41.3658  128.3017 C   0  0  0  0  0  0  0  0  0  0  0  0
   11.1803   39.2337  125.8019 N   0  0  0  0  0  0  0  0  0  0  0  0
   12.2768   38.5280  126.4328 C   0  0  0  0  0  0  0  0  0  0  0  0
   12.4785   37.1933  125.7056 C   0  0  0  0  0  0  0  0  0  0  0  0
   11.2574   36.8714  124.9922 N   0  0  0  0  0  0  0  0  0  0  0  0
   11.1464   37.8277  123.8939 C   0  0  0  0  0  0  0  0  0  0  0  0
    9.6936   37.7541  123.4412 C   0  0  0  0  0  0  0  0  0  0  0  0
   11.3943   39.2572  124.3996 C   0  0  0  0  0  0  0  0  0  0  0  0
   10.4715   36.9804  125.6814 H   0  0  0  0  0  0  0  0  0  0  0  0
   11.1290   47.9041  128.6990 C   0  0  0  0  0  0  0  0  0  0  0  0
    9.8795   47.5018  128.1907 O   0  0  0  0  0  0  0  0  0  0  0  0
 44 45  1  0  0  0
 45 24  1  0  0  0
 24 25  2  0  0  0
 25 26  1  0  0  0
 26 27  2  0  0  0
 27 28  1  0  0  0
 28 29  2  0  0  0
 29  1  1  0  0  0
  1  3  1  0  0  0
  3  4  2  0  0  0
  4  5  1  0  0  0
  5  6  2  0  0  0
  6  7  1  0  0  0
  6  8  1  0  0  0
  8 10  1  0  0  0
 10 12  1  0  0  0
 12 13  2  0  0  0
 13 14  1  0  0  0
 14 15  2  0  0  0
 15 16  1  0  0  0
 16 17  2  0  0  0
 17 18  1  0  0  0
 18 19  2  0  0  0
 18 20  2  0  0  0
 18 21  1  0  0  0
 21 22  1  0  0  0
 21 23  1  0  0  0
  8  9  2  0  0  0
 26 30  1  0  0  0
 30 31  1  0  0  0
 31 32  1  0  0  0
 32 33  1  0  0  0
 33 34  1  0  0  0
 34 35  1  0  0  0
 33 36  1  0  0  0
 36 37  1  0  0  0
 37 38  1  0  0  0
 38 39  1  0  0  0
 39 40  1  0  0  0
 40 41  1  0  0  0
 40 42  1  0  0  0
 29 24  1  0  0  0
  9  3  1  0  0  0
 35 30  1  0  0  0
 42 36  1  0  0  0
 17 12  1  0  0  0
  1  2  1  0  0  0
 10 11  1  0  0  0
 39 43  1  0  0  0
M  END
> <minimizedAffinity>
31.02467

> <CNNscore>
0.3130122423

> <CNNaffinity>
7.7581672668

> <CNN_VS>
2.4284012318

> <CNNaffinity_variance>
0.1981810778

$$$$
[H]c1nc(N([H])c2c([H])c([H])c(N3C([H])([H])C([H])([H])C([H])(N4C([H])([H])C([H])([H])N([H])[C@@]([H])(C([H])([H])[H])C4([H])[H])C([H])([H])C3([H])[H])c([H])c2OC([H])([H])[H])nc(N([H])c2c([H])c([H])c([H])c([H])c2S(=O)(=O)C([H])(C([H])([H])[H])C([H])([H])[H])c1Cl


 45 49  0  0  0  0  0  0  0  0999 V2000
    6.3264   52.2077  128.1666 N   0  0  0  0  0  0  0  0  0  0  0  0
    5.2699   52.1187  127.9306 H   0  0  0  0  0  0  0  0  0  0  0  0
    6.9413   53.3352  127.5786 C   0  0  0  0  0  0  0  0  0  0  0  0
    7.8480   54.1331  128.1539 N   0  0  0  0  0  0  0  0  0  0  0  0
    8.4191   55.1842  127.5675 C   0  0  0  0  0  0  0  0  0  0  0  0
    8.0644   55.4886  126.2734 C   0  0  0  0  0  0  0  0  0  0  0  0
    8.7680   56.8419  125.4589 Cl  0  0  0  0  0  0  0  0  0  0  0  0
    7.1240   54.6947  125.6169 C   0  0  0  0  0  0  0  0  0  0  0  0
    6.6305   53.6891  126.2943 N   0  0  0  0  0  0  0  0  0  0  0  0
    6.7548   55.0011  124.2762 N   0  0  0  0  0  0  0  0  0  0  0  0
    7.4397   55.6848  123.7889 H   0  0  0  0  0  0  0  0  0  0  0  0
    5.6956   54.5786  123.4991 C   0  0  0  0  0  0  0  0  0  0  0  0
    5.8010   53.5392  122.6093 C   0  0  0  0  0  0  0  0  0  0  0  0
    4.7153   53.1399  121.8170 C   0  0  0  0  0  0  0  0  0  0  0  0
    3.5285   53.7971  121.9315 C   0  0  0  0  0  0  0  0  0  0  0  0
    3.4291   54.8459  122.8325 C   0  0  0  0  0  0  0  0  0  0  0  0
    4.4763   55.2542  123.6181 C   0  0  0  0  0  0  0  0  0  0  0  0
    4.2612   56.5828  124.7130 S   0  0  0  0  0  0  0  0  0  0  0  0
    3.1649   57.4693  124.1508 O   0  0  0  0  0  0  0  0  0  0  0  0
    5.5278   57.3513  124.9810 O   0  0  0  0  0  0  0  0  0  0  0  0
    3.7171   55.9733  126.2910 C   0  0  0  0  0  0  0  0  0  0  0  0
    2.9994   57.0758  127.0265 C   0  0  0  0  0  0  0  0  0  0  0  0
    2.6665   54.8618  126.0537 C   0  0  0  0  0  0  0  0  0  0  0  0
    6.1634   50.1062  129.3149 C   0  0  0  0  0  0  0  0  0  0  0  0
    6.7404   49.1400  130.0962 C   0  0  0  0  0  0  0  0  0  0  0  0
    8.0215   49.2156  130.5768 C   0  0  0  0  0  0  0  0  0  0  0  0
    8.7684   50.3254  130.2560 C   0  0  0  0  0  0  0  0  0  0  0  0
    8.1894   51.3296  129.4531 C   0  0  0  0  0  0  0  0  0  0  0  0
    6.9176   51.2517  128.9766 C   0  0  0  0  0  0  0  0  0  0  0  0
    8.6315   48.1855  131.3994 N   0  0  0  0  0  0  0  0  0  0  0  0
    9.5086   48.5184  132.4791 C   0  0  0  0  0  0  0  0  0  0  0  0
   10.5907   47.5504  132.8248 C   0  0  0  0  0  0  0  0  0  0  0  0
   10.4223   46.2351  132.1799 C   0  0  0  0  0  0  0  0  0  0  0  0
    8.9375   45.9007  132.1027 C   0  0  0  0  0  0  0  0  0  0  0  0
    8.3002   46.8192  131.1122 C   0  0  0  0  0  0  0  0  0  0  0  0
   11.1710   45.1558  132.7102 N   0  0  0  0  0  0  0  0  0  0  0  0
   11.9835   45.4770  133.8656 C   0  0  0  0  0  0  0  0  0  0  0  0
   12.6236   44.1840  134.3846 C   0  0  0  0  0  0  0  0  0  0  0  0
   11.8537   43.0601  133.8867 N   0  0  0  0  0  0  0  0  0  0  0  0
   12.0948   42.9886  132.4480 C   0  0  0  0  0  0  0  0  0  0  0  0
   10.9788   42.1106  131.8960 C   0  0  0  0  0  0  0  0  0  0  0  0
   11.9411   44.3770  131.8082 C   0  0  0  0  0  0  0  0  0  0  0  0
   10.8465   43.2701  134.1006 H   0  0  0  0  0  0  0  0  0  0  0  0
    4.0815   48.8919  129.2717 C   0  0  0  0  0  0  0  0  0  0  0  0
    4.8496   49.9906  128.8424 O   0  0  0  0  0  0  0  0  0  0  0  0
 44 45  1  0  0  0
 45 24  1  0  0  0
 24 25  2  0  0  0
 25 26  1  0  0  0
 26 27  2  0  0  0
 27 28  1  0  0  0
 28 29  2  0  0  0
 29  1  1  0  0  0
  1  3  1  0  0  0
  3  4  2  0  0  0
  4  5  1  0  0  0
  5  6  2  0  0  0
  6  7  1  0  0  0
  6  8  1  0  0  0
  8 10  1  0  0  0
 10 12  1  0  0  0
 12 13  2  0  0  0
 13 14  1  0  0  0
 14 15  2  0  0  0
 15 16  1  0  0  0
 16 17  2  0  0  0
 17 18  1  0  0  0
 18 19  2  0  0  0
 18 20  2  0  0  0
 18 21  1  0  0  0
 21 22  1  0  0  0
 21 23  1  0  0  0
  8  9  2  0  0  0
 26 30  1  0  0  0
 30 31  1  0  0  0
 31 32  1  0  0  0
 32 33  1  0  0  0
 33 34  1  0  0  0
 34 35  1  0  0  0
 33 36  1  0  0  0
 36 37  1  0  0  0
 37 38  1  0  0  0
 38 39  1  0  0  0
 39 40  1  0  0  0
 40 41  1  0  0  0
 40 42  1  0  0  0
 29 24  1  0  0  0
  9  3  1  0  0  0
 35 30  1  0  0  0
 42 36  1  0  0  0
 17 12  1  0  0  0
  1  2  1  0  0  0
 10 11  1  0  0  0
 39 43  1  0  0  0
M  END
> <minimizedAffinity>
3.51466

> <CNNscore>
0.2988170683

> <CNNaffinity>
7.3721351624

> <CNN_VS>
2.2029197216

> <CNNaffinity_variance>
0.4148500562

$$$$
[H]c1nc(N([H])c2c([H])c([H])c(N3C([H])([H])C([H])([H])C([H])(N4C([H])([H])C([H])([H])N([H])[C@@]([H])(C([H])([H])[H])C4([H])[H])C([H])([H])C3([H])[H])c([H])c2OC([H])([H])[H])nc(N([H])c2c([H])c([H])c([H])c([H])c2S(=O)(=O)C([H])(C([H])([H])[H])C([H])([H])[H])c1Cl


 45 49  0  0  0  0  0  0  0  0999 V2000
    6.7741   47.8245  131.1031 N   0  0  0  0  0  0  0  0  0  0  0  0
    5.9417   47.1541  130.9099 H   0  0  0  0  0  0  0  0  0  0  0  0
    7.6303   47.3764  132.1333 C   0  0  0  0  0  0  0  0  0  0  0  0
    8.1873   48.1330  133.0856 N   0  0  0  0  0  0  0  0  0  0  0  0
    8.9827   47.6775  134.0524 C   0  0  0  0  0  0  0  0  0  0  0  0
    9.2645   46.3314  134.0926 C   0  0  0  0  0  0  0  0  0  0  0  0
   10.2927   45.6797  135.3207 Cl  0  0  0  0  0  0  0  0  0  0  0  0
    8.7141   45.4878  133.1277 C   0  0  0  0  0  0  0  0  0  0  0  0
    7.9479   46.0490  132.2268 N   0  0  0  0  0  0  0  0  0  0  0  0
    8.9980   44.0930  133.1653 N   0  0  0  0  0  0  0  0  0  0  0  0
    9.1803   43.7197  134.1659 H   0  0  0  0  0  0  0  0  0  0  0  0
    9.0728   43.1468  132.1635 C   0  0  0  0  0  0  0  0  0  0  0  0
    7.9580   42.5789  131.5995 C   0  0  0  0  0  0  0  0  0  0  0  0
    8.0598   41.6056  130.5953 C   0  0  0  0  0  0  0  0  0  0  0  0
    9.2919   41.2135  130.1688 C   0  0  0  0  0  0  0  0  0  0  0  0
   10.4135   41.7915  130.7427 C   0  0  0  0  0  0  0  0  0  0  0  0
   10.3393   42.7452  131.7254 C   0  0  0  0  0  0  0  0  0  0  0  0
   11.7982   43.4075  132.3910 S   0  0  0  0  0  0  0  0  0  0  0  0
   12.9301   42.4520  132.0601 O   0  0  0  0  0  0  0  0  0  0  0  0
   11.7107   43.6904  133.8671 O   0  0  0  0  0  0  0  0  0  0  0  0
   12.1535   44.9665  131.6156 C   0  0  0  0  0  0  0  0  0  0  0  0
   12.8008   45.8832  132.6217 C   0  0  0  0  0  0  0  0  0  0  0  0
   13.2075   44.7355  130.5060 C   0  0  0  0  0  0  0  0  0  0  0  0
    8.1393   49.2630  129.7509 C   0  0  0  0  0  0  0  0  0  0  0  0
    8.2675   50.3932  128.9872 C   0  0  0  0  0  0  0  0  0  0  0  0
    7.2480   51.2820  128.7673 C   0  0  0  0  0  0  0  0  0  0  0  0
    6.0278   51.0234  129.3475 C   0  0  0  0  0  0  0  0  0  0  0  0
    5.8789   49.8648  130.1373 C   0  0  0  0  0  0  0  0  0  0  0  0
    6.8924   48.9835  130.3533 C   0  0  0  0  0  0  0  0  0  0  0  0
    7.3867   52.4756  127.9512 N   0  0  0  0  0  0  0  0  0  0  0  0
    6.9501   53.7536  128.4223 C   0  0  0  0  0  0  0  0  0  0  0  0
    6.4752   54.7458  127.4137 C   0  0  0  0  0  0  0  0  0  0  0  0
    6.7974   54.3643  126.0262 C   0  0  0  0  0  0  0  0  0  0  0  0
    8.1512   53.6654  125.9997 C   0  0  0  0  0  0  0  0  0  0  0  0
    8.0064   52.3358  126.6646 C   0  0  0  0  0  0  0  0  0  0  0  0
    6.7179   55.3806  125.0425 N   0  0  0  0  0  0  0  0  0  0  0  0
    5.7056   56.3896  125.2779 C   0  0  0  0  0  0  0  0  0  0  0  0
    5.8365   57.4708  124.1986 C   0  0  0  0  0  0  0  0  0  0  0  0
    7.1688   57.3921  123.6310 N   0  0  0  0  0  0  0  0  0  0  0  0
    7.2258   56.1531  122.8599 C   0  0  0  0  0  0  0  0  0  0  0  0
    8.7092   55.8815  122.6433 C   0  0  0  0  0  0  0  0  0  0  0  0
    6.6637   54.9829  123.6817 C   0  0  0  0  0  0  0  0  0  0  0  0
    7.8380   57.3751  124.4411 H   0  0  0  0  0  0  0  0  0  0  0  0
   10.3938   48.8830  130.5145 C   0  0  0  0  0  0  0  0  0  0  0  0
    9.2069   48.3782  129.9507 O   0  0  0  0  0  0  0  0  0  0  0  0
 44 45  1  0  0  0
 45 24  1  0  0  0
 24 25  2  0  0  0
 25 26  1  0  0  0
 26 27  2  0  0  0
 27 28  1  0  0  0
 28 29  2  0  0  0
 29  1  1  0  0  0
  1  3  1  0  0  0
  3  4  2  0  0  0
  4  5  1  0  0  0
  5  6  2  0  0  0
  6  7  1  0  0  0
  6  8  1  0  0  0
  8 10  1  0  0  0
 10 12  1  0  0  0
 12 13  2  0  0  0
 13 14  1  0  0  0
 14 15  2  0  0  0
 15 16  1  0  0  0
 16 17  2  0  0  0
 17 18  1  0  0  0
 18 19  2  0  0  0
 18 20  2  0  0  0
 18 21  1  0  0  0
 21 22  1  0  0  0
 21 23  1  0  0  0
  8  9  2  0  0  0
 26 30  1  0  0  0
 30 31  1  0  0  0
 31 32  1  0  0  0
 32 33  1  0  0  0
 33 34  1  0  0  0
 34 35  1  0  0  0
 33 36  1  0  0  0
 36 37  1  0  0  0
 37 38  1  0  0  0
 38 39  1  0  0  0
 39 40  1  0  0  0
 40 41  1  0  0  0
 40 42  1  0  0  0
 29 24  1  0  0  0
  9  3  1  0  0  0
 35 30  1  0  0  0
 42 36  1  0  0  0
 17 12  1  0  0  0
  1  2  1  0  0  0
 10 11  1  0  0  0
 39 43  1  0  0  0
M  END
> <minimizedAffinity>
11.60493

> <CNNscore>
0.2867131829

> <CNNaffinity>
7.5100698471

> <CNN_VS>
2.1532359123

> <CNNaffinity_variance>
0.1570523977

$$$$
[H]c1nc(N([H])c2c([H])c([H])c(N3C([H])([H])C([H])([H])C([H])(N4C([H])([H])C([H])([H])N([H])[C@@]([H])(C([H])([H])[H])C4([H])[H])C([H])([H])C3([H])[H])c([H])c2OC([H])([H])[H])nc(N([H])c2c([H])c([H])c([H])c([H])c2S(=O)(=O)C([H])(C([H])([H])[H])C([H])([H])[H])c1Cl


 45 49  0  0  0  0  0  0  0  0999 V2000
    6.0644   46.6403  130.3687 N   0  0  0  0  0  0  0  0  0  0  0  0
    5.1656   46.1081  130.0712 H   0  0  0  0  0  0  0  0  0  0  0  0
    6.8514   45.9355  131.3064 C   0  0  0  0  0  0  0  0  0  0  0  0
    6.6942   45.9396  132.6349 N   0  0  0  0  0  0  0  0  0  0  0  0
    7.4473   45.2535  133.4932 C   0  0  0  0  0  0  0  0  0  0  0  0
    8.4681   44.4759  132.9968 C   0  0  0  0  0  0  0  0  0  0  0  0
    9.4824   43.5644  134.0600 Cl  0  0  0  0  0  0  0  0  0  0  0  0
    8.6843   44.4281  131.6196 C   0  0  0  0  0  0  0  0  0  0  0  0
    7.8811   45.1449  130.8749 N   0  0  0  0  0  0  0  0  0  0  0  0
    9.7363   43.6224  131.0982 N   0  0  0  0  0  0  0  0  0  0  0  0
    9.8351   42.6684  131.6020 H   0  0  0  0  0  0  0  0  0  0  0  0
   10.6337   43.8400  130.0726 C   0  0  0  0  0  0  0  0  0  0  0  0
   10.3880   43.4476  128.7808 C   0  0  0  0  0  0  0  0  0  0  0  0
   11.3235   43.6634  127.7589 C   0  0  0  0  0  0  0  0  0  0  0  0
   12.5032   44.2761  128.0530 C   0  0  0  0  0  0  0  0  0  0  0  0
   12.7445   44.6701  129.3599 C   0  0  0  0  0  0  0  0  0  0  0  0
   11.8453   44.4704  130.3759 C   0  0  0  0  0  0  0  0  0  0  0  0
   12.2371   44.9907  131.9839 S   0  0  0  0  0  0  0  0  0  0  0  0
   13.5606   45.7309  131.9183 O   0  0  0  0  0  0  0  0  0  0  0  0
   12.2659   43.8691  132.9878 O   0  0  0  0  0  0  0  0  0  0  0  0
   11.0008   46.1298  132.5602 C   0  0  0  0  0  0  0  0  0  0  0  0
   11.2468   46.4320  134.0161 C   0  0  0  0  0  0  0  0  0  0  0  0
   11.1783   47.4708  131.8082 C   0  0  0  0  0  0  0  0  0  0  0  0
    7.5774   48.1014  129.2123 C   0  0  0  0  0  0  0  0  0  0  0  0
    7.8392   49.3207  128.6452 C   0  0  0  0  0  0  0  0  0  0  0  0
    6.9462   50.3599  128.6304 C   0  0  0  0  0  0  0  0  0  0  0  0
    5.7181   50.1660  129.2194 C   0  0  0  0  0  0  0  0  0  0  0  0
    5.4326   48.9171  129.8083 C   0  0  0  0  0  0  0  0  0  0  0  0
    6.3207   47.8867  129.8208 C   0  0  0  0  0  0  0  0  0  0  0  0
    7.2256   51.6489  128.0220 N   0  0  0  0  0  0  0  0  0  0  0  0
    7.0136   52.8700  128.7360 C   0  0  0  0  0  0  0  0  0  0  0  0
    6.6471   54.0849  127.9503 C   0  0  0  0  0  0  0  0  0  0  0  0
    6.8384   53.9177  126.4978 C   0  0  0  0  0  0  0  0  0  0  0  0
    8.0663   53.0499  126.2502 C   0  0  0  0  0  0  0  0  0  0  0  0
    7.7525   51.6565  126.6874 C   0  0  0  0  0  0  0  0  0  0  0  0
    6.8671   55.0953  125.7109 N   0  0  0  0  0  0  0  0  0  0  0  0
    6.2946   56.2697  126.3365 C   0  0  0  0  0  0  0  0  0  0  0  0
    6.5175   57.4713  125.4105 C   0  0  0  0  0  0  0  0  0  0  0  0
    7.6031   57.1544  124.5023 N   0  0  0  0  0  0  0  0  0  0  0  0
    7.1039   56.1283  123.5907 C   0  0  0  0  0  0  0  0  0  0  0  0
    8.3455   55.5181  122.9526 C   0  0  0  0  0  0  0  0  0  0  0  0
    6.3984   55.0109  124.3745 C   0  0  0  0  0  0  0  0  0  0  0  0
    8.3927   56.7946  125.0951 H   0  0  0  0  0  0  0  0  0  0  0  0
    9.7927   47.3229  128.6675 C   0  0  0  0  0  0  0  0  0  0  0  0
    8.5181   47.0633  129.2055 O   0  0  0  0  0  0  0  0  0  0  0  0
 44 45  1  0  0  0
 45 24  1  0  0  0
 24 25  2  0  0  0
 25 26  1  0  0  0
 26 27  2  0  0  0
 27 28  1  0  0  0
 28 29  2  0  0  0
 29  1  1  0  0  0
  1  3  1  0  0  0
  3  4  2  0  0  0
  4  5  1  0  0  0
  5  6  2  0  0  0
  6  7  1  0  0  0
  6  8  1  0  0  0
  8 10  1  0  0  0
 10 12  1  0  0  0
 12 13  2  0  0  0
 13 14  1  0  0  0
 14 15  2  0  0  0
 15 16  1  0  0  0
 16 17  2  0  0  0
 17 18  1  0  0  0
 18 19  2  0  0  0
 18 20  2  0  0  0
 18 21  1  0  0  0
 21 22  1  0  0  0
 21 23  1  0  0  0
  8  9  2  0  0  0
 26 30  1  0  0  0
 30 31  1  0  0  0
 31 32  1  0  0  0
 32 33  1  0  0  0
 33 34  1  0  0  0
 34 35  1  0  0  0
 33 36  1  0  0  0
 36 37  1  0  0  0
 37 38  1  0  0  0
 38 39  1  0  0  0
 39 40  1  0  0  0
 40 41  1  0  0  0
 40 42  1  0  0  0
 29 24  1  0  0  0
  9  3  1  0  0  0
 35 30  1  0  0  0
 42 36  1  0  0  0
 17 12  1  0  0  0
  1  2  1  0  0  0
 10 11  1  0  0  0
 39 43  1  0  0  0
M  END
> <minimizedAffinity>
9.16481

> <CNNscore>
0.2724754512

> <CNNaffinity>
7.6696953773

> <CNN_VS>
2.0898036957

> <CNNaffinity_variance>
0.0727522224

$$$$
[H]c1nc(N([H])c2c([H])c([H])c(N3C([H])([H])C([H])([H])C([H])(N4C([H])([H])C([H])([H])N([H])[C@@]([H])(C([H])([H])[H])C4([H])[H])C([H])([H])C3([H])[H])c([H])c2OC([H])([H])[H])nc(N([H])c2c([H])c([H])c([H])c([H])c2S(=O)(=O)C([H])(C([H])([H])[H])C([H])([H])[H])c1Cl


 45 49  0  0  0  0  0  0  0  0999 V2000
    6.2456   51.9140  128.4988 N   0  0  0  0  0  0  0  0  0  0  0  0
    5.1888   52.0575  128.7043 H   0  0  0  0  0  0  0  0  0  0  0  0
    6.8702   53.0518  127.9416 C   0  0  0  0  0  0  0  0  0  0  0  0
    7.9678   53.6598  128.4055 N   0  0  0  0  0  0  0  0  0  0  0  0
    8.5404   54.7265  127.8495 C   0  0  0  0  0  0  0  0  0  0  0  0
    7.9768   55.2576  126.7122 C   0  0  0  0  0  0  0  0  0  0  0  0
    8.6713   56.6432  125.9456 Cl  0  0  0  0  0  0  0  0  0  0  0  0
    6.8307   54.6692  126.1775 C   0  0  0  0  0  0  0  0  0  0  0  0
    6.3576   53.6257  126.8106 N   0  0  0  0  0  0  0  0  0  0  0  0
    6.2441   55.2108  124.9984 N   0  0  0  0  0  0  0  0  0  0  0  0
    6.6182   56.1962  124.7476 H   0  0  0  0  0  0  0  0  0  0  0  0
    5.3010   54.7024  124.1286 C   0  0  0  0  0  0  0  0  0  0  0  0
    3.9688   54.6231  124.4479 C   0  0  0  0  0  0  0  0  0  0  0  0
    3.0317   54.0855  123.5542 C   0  0  0  0  0  0  0  0  0  0  0  0
    3.4512   53.6310  122.3413 C   0  0  0  0  0  0  0  0  0  0  0  0
    4.7983   53.7144  122.0253 C   0  0  0  0  0  0  0  0  0  0  0  0
    5.7331   54.2364  122.8822 C   0  0  0  0  0  0  0  0  0  0  0  0
    7.3998   54.2933  122.4035 S   0  0  0  0  0  0  0  0  0  0  0  0
    7.4399   54.4353  120.8928 O   0  0  0  0  0  0  0  0  0  0  0  0
    8.2027   53.1129  122.8817 O   0  0  0  0  0  0  0  0  0  0  0  0
    8.1744   55.7285  123.1091 C   0  0  0  0  0  0  0  0  0  0  0  0
    9.6682   55.5291  123.1205 C   0  0  0  0  0  0  0  0  0  0  0  0
    7.9104   56.9375  122.1795 C   0  0  0  0  0  0  0  0  0  0  0  0
    7.5812   50.5815  129.9828 C   0  0  0  0  0  0  0  0  0  0  0  0
    8.1452   49.3741  130.3005 C   0  0  0  0  0  0  0  0  0  0  0  0
    8.0229   48.2504  129.5257 C   0  0  0  0  0  0  0  0  0  0  0  0
    7.2927   48.3423  128.3635 C   0  0  0  0  0  0  0  0  0  0  0  0
    6.7059   49.5779  128.0213 C   0  0  0  0  0  0  0  0  0  0  0  0
    6.8281   50.6917  128.7927 C   0  0  0  0  0  0  0  0  0  0  0  0
    8.6171   46.9705  129.8699 N   0  0  0  0  0  0  0  0  0  0  0  0
    7.8160   45.8780  130.3288 C   0  0  0  0  0  0  0  0  0  0  0  0
    8.4374   44.9035  131.2732 C   0  0  0  0  0  0  0  0  0  0  0  0
    9.9012   45.0472  131.3774 C   0  0  0  0  0  0  0  0  0  0  0  0
   10.4658   45.4311  130.0151 C   0  0  0  0  0  0  0  0  0  0  0  0
   10.0352   46.8272  129.7047 C   0  0  0  0  0  0  0  0  0  0  0  0
   10.6165   43.9672  131.9507 N   0  0  0  0  0  0  0  0  0  0  0  0
   10.4509   42.6930  131.2818 C   0  0  0  0  0  0  0  0  0  0  0  0
   11.3807   41.6706  131.9463 C   0  0  0  0  0  0  0  0  0  0  0  0
   12.4237   42.3907  132.6514 N   0  0  0  0  0  0  0  0  0  0  0  0
   11.7876   43.0432  133.7928 C   0  0  0  0  0  0  0  0  0  0  0  0
   12.7764   44.1082  134.2502 C   0  0  0  0  0  0  0  0  0  0  0  0
   10.5075   43.7693  133.3514 C   0  0  0  0  0  0  0  0  0  0  0  0
   12.8136   43.0919  131.9725 H   0  0  0  0  0  0  0  0  0  0  0  0
    8.7329   51.6858  131.7896 C   0  0  0  0  0  0  0  0  0  0  0  0
    7.7291   51.7075  130.8030 O   0  0  0  0  0  0  0  0  0  0  0  0
 44 45  1  0  0  0
 45 24  1  0  0  0
 24 25  2  0  0  0
 25 26  1  0  0  0
 26 27  2  0  0  0
 27 28  1  0  0  0
 28 29  2  0  0  0
 29  1  1  0  0  0
  1  3  1  0  0  0
  3  4  2  0  0  0
  4  5  1  0  0  0
  5  6  2  0  0  0
  6  7  1  0  0  0
  6  8  1  0  0  0
  8 10  1  0  0  0
 10 12  1  0  0  0
 12 13  2  0  0  0
 13 14  1  0  0  0
 14 15  2  0  0  0
 15 16  1  0  0  0
 16 17  2  0  0  0
 17 18  1  0  0  0
 18 19  2  0  0  0
 18 20  2  0  0  0
 18 21  1  0  0  0
 21 22  1  0  0  0
 21 23  1  0  0  0
  8  9  2  0  0  0
 26 30  1  0  0  0
 30 31  1  0  0  0
 31 32  1  0  0  0
 32 33  1  0  0  0
 33 34  1  0  0  0
 34 35  1  0  0  0
 33 36  1  0  0  0
 36 37  1  0  0  0
 37 38  1  0  0  0
 38 39  1  0  0  0
 39 40  1  0  0  0
 40 41  1  0  0  0
 40 42  1  0  0  0
 29 24  1  0  0  0
  9  3  1  0  0  0
 35 30  1  0  0  0
 42 36  1  0  0  0
 17 12  1  0  0  0
  1  2  1  0  0  0
 10 11  1  0  0  0
 39 43  1  0  0  0
M  END
> <minimizedAffinity>
5.90455

> <CNNscore>
0.2669788897

> <CNNaffinity>
7.5415601730

> <CNN_VS>
2.0134372711

> <CNNaffinity_variance>
0.6736677885

$$$$
[H]N=C(N([H])[H])N([H])C([H])([H])C([H])([H])C([H])([H])[C@@]([H])(C(=O)N([H])[C@]([H])(C(=O)N([H])[C@]([H])(C(=O)N([H])[H])C([H])([H])c1c([H])c([H])c([H])c([H])c1[H])C([H])([H])C(=N[H])N([H])[H])N([H])C(=O)[C@@]([H])(N([H])C(=O)[C@@]([H])(N([H])C(=O)OC([H])([H])c1c([H])c([H])c([H])c([H])c1[H])C([H])([H])C([H])([H])C([H])([H])N([H])C(=N[H])N([H])[H])C([H])([H])c1c([H])c([H])c([H])c([H])c1[H]


 81 83  0  0  0  0  0  0  0  0999 V2000
    5.2949   47.9699  129.4550 C   0  0  0  0  0  0  0  0  0  0  0  0
    6.4473   48.8236  129.0154 C   0  0  0  0  0  0  0  0  0  0  0  0
    7.0997   48.8337  127.6646 O   0  0  0  0  0  0  0  0  0  0  0  0
    7.0682   49.7966  129.9733 N   0  0  0  0  0  0  0  0  0  0  0  0
    6.4159   49.7865  131.3240 H   0  0  0  0  0  0  0  0  0  0  0  0
    8.2206   50.6502  129.5338 C   0  0  0  0  0  0  0  0  0  0  0  0
    9.1568   49.8036  130.3441 C   0  0  0  0  0  0  0  0  0  0  0  0
   10.5796   49.8914  129.8769 O   0  0  0  0  0  0  0  0  0  0  0  0
    8.6306   48.9864  131.4866 N   0  0  0  0  0  0  0  0  0  0  0  0
    7.1502   49.1328  131.6789 H   0  0  0  0  0  0  0  0  0  0  0  0
    9.5669   48.1398  132.2970 C   0  0  0  0  0  0  0  0  0  0  0  0
    9.1811   48.8964  133.5333 C   0  0  0  0  0  0  0  0  0  0  0  0
    9.5490   50.3439  133.6723 N   0  0  0  0  0  0  0  0  0  0  0  0
    8.4341   48.0556  134.5259 O   0  0  0  0  0  0  0  0  0  0  0  0
    9.3314   51.3769  134.7380 H   0  0  0  0  0  0  0  0  0  0  0  0
   10.2985   50.8746  132.4862 H   0  0  0  0  0  0  0  0  0  0  0  0
    9.9527   47.3831  131.0606 C   0  0  0  0  0  0  0  0  0  0  0  0
   10.3385   46.6265  129.8242 C   0  0  0  0  0  0  0  0  0  0  0  0
    9.4867   46.7171  128.5930 C   0  0  0  0  0  0  0  0  0  0  0  0
    9.8725   45.9605  127.3566 C   0  0  0  0  0  0  0  0  0  0  0  0
   11.1102   45.1132  127.3515 C   0  0  0  0  0  0  0  0  0  0  0  0
   11.9621   45.0225  128.5827 C   0  0  0  0  0  0  0  0  0  0  0  0
   11.5763   45.7792  129.8191 C   0  0  0  0  0  0  0  0  0  0  0  0
    7.2843   51.4969  128.7234 C   0  0  0  0  0  0  0  0  0  0  0  0
    6.3480   52.3435  127.9131 C   0  0  0  0  0  0  0  0  0  0  0  0
    6.8726   53.5266  127.1548 N   0  0  0  0  0  0  0  0  0  0  0  0
    4.8872   52.0070  127.8612 N   0  0  0  0  0  0  0  0  0  0  0  0
    5.9363   54.3732  126.3445 H   0  0  0  0  0  0  0  0  0  0  0  0
    8.3335   53.8631  127.2068 H   0  0  0  0  0  0  0  0  0  0  0  0
    3.9509   52.8536  127.0508 H   0  0  0  0  0  0  0  0  0  0  0  0
    6.8401   46.1106  130.4065 C   0  0  0  0  0  0  0  0  0  0  0  0
    6.6097   45.4865  129.0622 O   0  0  0  0  0  0  0  0  0  0  0  0
    6.1288   47.4206  130.5743 N   0  0  0  0  0  0  0  0  0  0  0  0
    6.1417   48.3064  131.7848 H   0  0  0  0  0  0  0  0  0  0  0  0
    7.6740   45.5613  131.5258 C   0  0  0  0  0  0  0  0  0  0  0  0
    8.1886   43.1575  130.6850 C   0  0  0  0  0  0  0  0  0  0  0  0
    7.7815   42.6874  131.1837 O   0  0  0  0  0  0  0  0  0  0  0  0
    8.3631   44.6422  130.5613 N   0  0  0  0  0  0  0  0  0  0  0  0
    9.2268   45.2078  129.4731 H   0  0  0  0  0  0  0  0  0  0  0  0
    8.8778   42.2384  129.7205 C   0  0  0  0  0  0  0  0  0  0  0  0
   10.1787   42.9370  129.9843 N   0  0  0  0  0  0  0  0  0  0  0  0
   11.1854   42.3226  130.9113 C   0  0  0  0  0  0  0  0  0  0  0  0
   11.0558   41.0254  131.6532 O   0  0  0  0  0  0  0  0  0  0  0  0
   10.6332   44.2461  129.4100 H   0  0  0  0  0  0  0  0  0  0  0  0
   12.4863   43.0212  131.1751 O   0  0  0  0  0  0  0  0  0  0  0  0
   12.5462   44.1461  132.1655 C   0  0  0  0  0  0  0  0  0  0  0  0
   12.6061   45.2712  133.1558 C   0  0  0  0  0  0  0  0  0  0  0  0
   11.6663   46.4333  133.0285 C   0  0  0  0  0  0  0  0  0  0  0  0
   11.7262   47.5582  134.0189 C   0  0  0  0  0  0  0  0  0  0  0  0
   12.7259   47.5211  135.1366 C   0  0  0  0  0  0  0  0  0  0  0  0
   13.6657   46.3590  135.2639 C   0  0  0  0  0  0  0  0  0  0  0  0
   13.6058   45.2340  134.2735 C   0  0  0  0  0  0  0  0  0  0  0  0
    9.5669   41.3193  128.7560 C   0  0  0  0  0  0  0  0  0  0  0  0
   10.2561   40.4002  127.7915 C   0  0  0  0  0  0  0  0  0  0  0  0
   10.9453   39.4810  126.8270 C   0  0  0  0  0  0  0  0  0  0  0  0
   11.6344   38.5619  125.8625 N   0  0  0  0  0  0  0  0  0  0  0  0
   10.9826   38.2209  124.5554 H   0  0  0  0  0  0  0  0  0  0  0  0
   14.0845   38.0120  125.1956 N   0  0  0  0  0  0  0  0  0  0  0  0
   12.9754   37.9838  126.2052 C   0  0  0  0  0  0  0  0  0  0  0  0
   13.2074   37.3774  127.5574 N   0  0  0  0  0  0  0  0  0  0  0  0
   15.4255   37.4339  125.5383 H   0  0  0  0  0  0  0  0  0  0  0  0
   13.6818   38.6526  123.9004 H   0  0  0  0  0  0  0  0  0  0  0  0
   14.5485   36.7993  127.9001 H   0  0  0  0  0  0  0  0  0  0  0  0
    8.5079   45.0120  132.6452 C   0  0  0  0  0  0  0  0  0  0  0  0
    9.3418   44.4627  133.7645 C   0  0  0  0  0  0  0  0  0  0  0  0
    9.9746   43.1089  133.6337 C   0  0  0  0  0  0  0  0  0  0  0  0
   10.8085   42.5596  134.7531 C   0  0  0  0  0  0  0  0  0  0  0  0
   11.0096   43.3640  136.0031 C   0  0  0  0  0  0  0  0  0  0  0  0
   10.3767   44.7177  136.1338 C   0  0  0  0  0  0  0  0  0  0  0  0
    9.5428   45.2670  135.0145 C   0  0  0  0  0  0  0  0  0  0  0  0
    4.1425   47.1163  129.8946 C   0  0  0  0  0  0  0  0  0  0  0  0
    2.9901   46.2626  130.3342 C   0  0  0  0  0  0  0  0  0  0  0  0
    1.8377   45.4090  130.7737 C   0  0  0  0  0  0  0  0  0  0  0  0
    0.6853   44.5553  131.2133 N   0  0  0  0  0  0  0  0  0  0  0  0
   -0.6556   44.4382  130.5512 H   0  0  0  0  0  0  0  0  0  0  0  0
    0.8110   43.6984  132.4380 C   0  0  0  0  0  0  0  0  0  0  0  0
   -0.2309   43.7713  133.5145 N   0  0  0  0  0  0  0  0  0  0  0  0
    1.9787   42.7685  132.5861 N   0  0  0  0  0  0  0  0  0  0  0  0
   -0.1053   42.9143  134.7393 H   0  0  0  0  0  0  0  0  0  0  0  0
   -1.3986   44.7011  133.3664 H   0  0  0  0  0  0  0  0  0  0  0  0
    2.1044   41.9116  133.8108 H   0  0  0  0  0  0  0  0  0  0  0  0
 58 59  1  0  0  0
 59 60  2  0  0  0
 59 56  1  0  0  0
 56 55  1  0  0  0
 55 54  1  0  0  0
 54 53  1  0  0  0
 53 40  1  0  0  0
 40 41  1  0  0  0
 41 42  1  0  0  0
 42 43  2  0  0  0
 42 45  1  0  0  0
 45 46  1  0  0  0
 46 47  1  0  0  0
 47 48  2  0  0  0
 48 49  1  0  0  0
 49 50  2  0  0  0
 50 51  1  0  0  0
 51 52  2  0  0  0
 40 36  1  0  0  0
 36 37  2  0  0  0
 36 38  1  0  0  0
 38 35  1  0  0  0
 35 64  1  0  0  0
 64 65  1  0  0  0
 65 66  2  0  0  0
 66 67  1  0  0  0
 67 68  2  0  0  0
 68 69  1  0  0  0
 69 70  2  0  0  0
 35 31  1  0  0  0
 31 32  2  0  0  0
 31 33  1  0  0  0
 33  1  1  0  0  0
  1 71  1  0  0  0
 71 72  1  0  0  0
 72 73  1  0  0  0
 73 74  1  0  0  0
 74 76  1  0  0  0
 76 77  1  0  0  0
 76 78  2  0  0  0
  1  2  1  0  0  0
  2  3  2  0  0  0
  2  4  1  0  0  0
  4  6  1  0  0  0
  6 24  1  0  0  0
 24 25  1  0  0  0
 25 26  1  0  0  0
 25 27  2  0  0  0
  6  7  1  0  0  0
  7  8  2  0  0  0
  7  9  1  0  0  0
  9 11  1  0  0  0
 11 17  1  0  0  0
 17 18  1  0  0  0
 18 19  2  0  0  0
 19 20  1  0  0  0
 20 21  2  0  0  0
 21 22  1  0  0  0
 22 23  2  0  0  0
 11 12  1  0  0  0
 12 13  1  0  0  0
 12 14  2  0  0  0
 52 47  1  0  0  0
 70 65  1  0  0  0
 23 18  1  0  0  0
 58 61  1  0  0  0
 58 62  1  0  0  0
 60 63  1  0  0  0
 56 57  1  0  0  0
 41 44  1  0  0  0
 38 39  1  0  0  0
 33 34  1  0  0  0
 74 75  1  0  0  0
 77 79  1  0  0  0
 77 80  1  0  0  0
 78 81  1  0  0  0
  4  5  1  0  0  0
 26 28  1  0  0  0
 26 29  1  0  0  0
 27 30  1  0  0  0
  9 10  1  0  0  0
 13 15  1  0  0  0
 13 16  1  0  0  0
M  END
> <minimizedAffinity>
23.61305

> <CNNscore>
0.3958861530

> <CNNaffinity>
8.4286403656

> <CNN_VS>
3.3367819786

> <CNNaffinity_variance>
1.0264558792

$$$$
[H]N=C(N([H])[H])N([H])C([H])([H])C([H])([H])C([H])([H])[C@@]([H])(C(=O)N([H])[C@]([H])(C(=O)N([H])[C@]([H])(C(=O)N([H])[H])C([H])([H])c1c([H])c([H])c([H])c([H])c1[H])C([H])([H])C(=N[H])N([H])[H])N([H])C(=O)[C@@]([H])(N([H])C(=O)[C@@]([H])(N([H])C(=O)OC([H])([H])c1c([H])c([H])c([H])c([H])c1[H])C([H])([H])C([H])([H])C([H])([H])N([H])C(=N[H])N([H])[H])C([H])([H])c1c([H])c([H])c([H])c([H])c1[H]


 81 83  0  0  0  0  0  0  0  0999 V2000
    5.1862   47.6641  129.7460 C   0  0  0  0  0  0  0  0  0  0  0  0
    6.4520   48.4383  129.9659 C   0  0  0  0  0  0  0  0  0  0  0  0
    6.8547   49.1762  131.2083 O   0  0  0  0  0  0  0  0  0  0  0  0
    7.4745   48.5304  128.8723 N   0  0  0  0  0  0  0  0  0  0  0  0
    7.0719   47.7925  127.6300 H   0  0  0  0  0  0  0  0  0  0  0  0
    8.7403   49.3046  129.0923 C   0  0  0  0  0  0  0  0  0  0  0  0
    7.9357   50.5302  129.4092 C   0  0  0  0  0  0  0  0  0  0  0  0
    8.1987   51.0641  130.7861 O   0  0  0  0  0  0  0  0  0  0  0  0
    6.9901   51.0912  128.3888 N   0  0  0  0  0  0  0  0  0  0  0  0
    6.9734   50.3058  127.1109 H   0  0  0  0  0  0  0  0  0  0  0  0
    6.1855   52.3168  128.7057 C   0  0  0  0  0  0  0  0  0  0  0  0
    5.4318   51.5513  129.7527 C   0  0  0  0  0  0  0  0  0  0  0  0
    5.5401   51.9479  131.1952 N   0  0  0  0  0  0  0  0  0  0  0  0
    4.6217   50.4237  129.1848 O   0  0  0  0  0  0  0  0  0  0  0  0
    4.9444   51.4229  132.4679 H   0  0  0  0  0  0  0  0  0  0  0  0
    6.4411   53.1273  131.4128 H   0  0  0  0  0  0  0  0  0  0  0  0
    6.9391   53.0823  127.6588 C   0  0  0  0  0  0  0  0  0  0  0  0
    7.6927   53.8478  126.6119 C   0  0  0  0  0  0  0  0  0  0  0  0
    8.0853   55.2737  126.8625 C   0  0  0  0  0  0  0  0  0  0  0  0
    8.8389   56.0392  125.8156 C   0  0  0  0  0  0  0  0  0  0  0  0
    9.2000   55.3789  124.5181 C   0  0  0  0  0  0  0  0  0  0  0  0
    8.8074   53.9530  124.2675 C   0  0  0  0  0  0  0  0  0  0  0  0
    8.0538   53.1875  125.3144 C   0  0  0  0  0  0  0  0  0  0  0  0
    9.5449   48.0790  128.7753 C   0  0  0  0  0  0  0  0  0  0  0  0
   10.3496   46.8533  128.4584 C   0  0  0  0  0  0  0  0  0  0  0  0
   11.8478   46.9063  128.5075 N   0  0  0  0  0  0  0  0  0  0  0  0
    9.6559   45.5747  128.0922 N   0  0  0  0  0  0  0  0  0  0  0  0
   12.6524   45.6807  128.1905 H   0  0  0  0  0  0  0  0  0  0  0  0
   12.5415   48.1850  128.8736 H   0  0  0  0  0  0  0  0  0  0  0  0
   10.4605   44.3491  127.7753 H   0  0  0  0  0  0  0  0  0  0  0  0
    7.0556   46.2250  130.8344 C   0  0  0  0  0  0  0  0  0  0  0  0
    7.2475   47.4465  131.6835 O   0  0  0  0  0  0  0  0  0  0  0  0
    5.9579   46.3802  129.8238 N   0  0  0  0  0  0  0  0  0  0  0  0
    5.5028   45.3612  128.8215 H   0  0  0  0  0  0  0  0  0  0  0  0
    7.8272   44.9411  130.9122 C   0  0  0  0  0  0  0  0  0  0  0  0
    8.7013   45.8655  133.1775 C   0  0  0  0  0  0  0  0  0  0  0  0
    8.1160   45.6992  133.6925 O   0  0  0  0  0  0  0  0  0  0  0  0
    8.8948   45.6310  131.7086 N   0  0  0  0  0  0  0  0  0  0  0  0
   10.1559   46.0865  131.0361 H   0  0  0  0  0  0  0  0  0  0  0  0
    9.7689   46.5554  133.9739 C   0  0  0  0  0  0  0  0  0  0  0  0
   10.8112   45.6977  133.3197 N   0  0  0  0  0  0  0  0  0  0  0  0
   11.4795   44.6039  134.0989 C   0  0  0  0  0  0  0  0  0  0  0  0
   11.2286   44.2322  135.5304 O   0  0  0  0  0  0  0  0  0  0  0  0
   11.3029   45.7946  131.9059 H   0  0  0  0  0  0  0  0  0  0  0  0
   12.5218   43.7462  133.4447 O   0  0  0  0  0  0  0  0  0  0  0  0
   12.7336   43.8230  131.9618 C   0  0  0  0  0  0  0  0  0  0  0  0
   12.9454   43.8997  130.4788 C   0  0  0  0  0  0  0  0  0  0  0  0
   11.7805   43.7489  129.5460 C   0  0  0  0  0  0  0  0  0  0  0  0
   11.9924   43.8256  128.0630 C   0  0  0  0  0  0  0  0  0  0  0  0
   13.3692   44.0532  127.5129 C   0  0  0  0  0  0  0  0  0  0  0  0
   14.5341   44.2040  128.4457 C   0  0  0  0  0  0  0  0  0  0  0  0
   14.3222   44.1273  129.9286 C   0  0  0  0  0  0  0  0  0  0  0  0
   10.8365   47.2453  134.7703 C   0  0  0  0  0  0  0  0  0  0  0  0
   11.9040   47.9353  135.5667 C   0  0  0  0  0  0  0  0  0  0  0  0
   12.9716   48.6252  136.3631 C   0  0  0  0  0  0  0  0  0  0  0  0
   14.0392   49.3151  137.1595 N   0  0  0  0  0  0  0  0  0  0  0  0
   13.8151   50.7097  137.6645 H   0  0  0  0  0  0  0  0  0  0  0  0
   15.5485   47.2097  136.9605 N   0  0  0  0  0  0  0  0  0  0  0  0
   15.3309   48.6105  137.4510 C   0  0  0  0  0  0  0  0  0  0  0  0
   16.4051   49.3066  138.2331 N   0  0  0  0  0  0  0  0  0  0  0  0
   16.8401   46.5051  137.2520 H   0  0  0  0  0  0  0  0  0  0  0  0
   14.3760   46.6670  136.1983 H   0  0  0  0  0  0  0  0  0  0  0  0
   17.6968   48.6020  138.5245 H   0  0  0  0  0  0  0  0  0  0  0  0
    8.5989   43.6572  130.9900 C   0  0  0  0  0  0  0  0  0  0  0  0
    9.3706   42.3733  131.0679 C   0  0  0  0  0  0  0  0  0  0  0  0
   10.2351   42.0889  132.2604 C   0  0  0  0  0  0  0  0  0  0  0  0
   11.0067   40.8050  132.3382 C   0  0  0  0  0  0  0  0  0  0  0  0
   10.9140   39.8054  131.2235 C   0  0  0  0  0  0  0  0  0  0  0  0
   10.0496   40.0898  130.0311 C   0  0  0  0  0  0  0  0  0  0  0  0
    9.2779   41.3737  129.9533 C   0  0  0  0  0  0  0  0  0  0  0  0
    3.9204   46.8900  129.5260 C   0  0  0  0  0  0  0  0  0  0  0  0
    2.6546   46.1159  129.3061 C   0  0  0  0  0  0  0  0  0  0  0  0
    1.3887   45.3417  129.0861 C   0  0  0  0  0  0  0  0  0  0  0  0
    0.1229   44.5676  128.8662 N   0  0  0  0  0  0  0  0  0  0  0  0
   -0.8317   44.0811  129.9160 H   0  0  0  0  0  0  0  0  0  0  0  0
   -0.3009   44.2028  127.4743 C   0  0  0  0  0  0  0  0  0  0  0  0
   -0.6892   42.7896  127.1547 N   0  0  0  0  0  0  0  0  0  0  0  0
   -0.3364   45.2511  126.4021 N   0  0  0  0  0  0  0  0  0  0  0  0
   -1.1130   42.4247  125.7628 H   0  0  0  0  0  0  0  0  0  0  0  0
   -0.6537   41.7413  128.2270 H   0  0  0  0  0  0  0  0  0  0  0  0
   -0.7602   44.8863  125.0102 H   0  0  0  0  0  0  0  0  0  0  0  0
 58 59  1  0  0  0
 59 60  2  0  0  0
 59 56  1  0  0  0
 56 55  1  0  0  0
 55 54  1  0  0  0
 54 53  1  0  0  0
 53 40  1  0  0  0
 40 41  1  0  0  0
 41 42  1  0  0  0
 42 43  2  0  0  0
 42 45  1  0  0  0
 45 46  1  0  0  0
 46 47  1  0  0  0
 47 48  2  0  0  0
 48 49  1  0  0  0
 49 50  2  0  0  0
 50 51  1  0  0  0
 51 52  2  0  0  0
 40 36  1  0  0  0
 36 37  2  0  0  0
 36 38  1  0  0  0
 38 35  1  0  0  0
 35 64  1  0  0  0
 64 65  1  0  0  0
 65 66  2  0  0  0
 66 67  1  0  0  0
 67 68  2  0  0  0
 68 69  1  0  0  0
 69 70  2  0  0  0
 35 31  1  0  0  0
 31 32  2  0  0  0
 31 33  1  0  0  0
 33  1  1  0  0  0
  1 71  1  0  0  0
 71 72  1  0  0  0
 72 73  1  0  0  0
 73 74  1  0  0  0
 74 76  1  0  0  0
 76 77  1  0  0  0
 76 78  2  0  0  0
  1  2  1  0  0  0
  2  3  2  0  0  0
  2  4  1  0  0  0
  4  6  1  0  0  0
  6 24  1  0  0  0
 24 25  1  0  0  0
 25 26  1  0  0  0
 25 27  2  0  0  0
  6  7  1  0  0  0
  7  8  2  0  0  0
  7  9  1  0  0  0
  9 11  1  0  0  0
 11 17  1  0  0  0
 17 18  1  0  0  0
 18 19  2  0  0  0
 19 20  1  0  0  0
 20 21  2  0  0  0
 21 22  1  0  0  0
 22 23  2  0  0  0
 11 12  1  0  0  0
 12 13  1  0  0  0
 12 14  2  0  0  0
 52 47  1  0  0  0
 70 65  1  0  0  0
 23 18  1  0  0  0
 58 61  1  0  0  0
 58 62  1  0  0  0
 60 63  1  0  0  0
 56 57  1  0  0  0
 41 44  1  0  0  0
 38 39  1  0  0  0
 33 34  1  0  0  0
 74 75  1  0  0  0
 77 79  1  0  0  0
 77 80  1  0  0  0
 78 81  1  0  0  0
  4  5  1  0  0  0
 26 28  1  0  0  0
 26 29  1  0  0  0
 27 30  1  0  0  0
  9 10  1  0  0  0
 13 15  1  0  0  0
 13 16  1  0  0  0
M  END
> <minimizedAffinity>
23.60680

> <CNNscore>
0.3416865468

> <CNNaffinity>
8.2439746857

> <CNN_VS>
2.8168551922

> <CNNaffinity_variance>
0.8773080707

$$$$
[H]N=C(N([H])[H])N([H])C([H])([H])C([H])([H])C([H])([H])[C@@]([H])(C(=O)N([H])[C@]([H])(C(=O)N([H])[C@]([H])(C(=O)N([H])[H])C([H])([H])c1c([H])c([H])c([H])c([H])c1[H])C([H])([H])C(=N[H])N([H])[H])N([H])C(=O)[C@@]([H])(N([H])C(=O)[C@@]([H])(N([H])C(=O)OC([H])([H])c1c([H])c([H])c([H])c([H])c1[H])C([H])([H])C([H])([H])C([H])([H])N([H])C(=N[H])N([H])[H])C([H])([H])c1c([H])c([H])c([H])c([H])c1[H]


 81 83  0  0  0  0  0  0  0  0999 V2000
    5.3026   47.7678  129.3196 C   0  0  0  0  0  0  0  0  0  0  0  0
    6.4794   48.5825  128.8708 C   0  0  0  0  0  0  0  0  0  0  0  0
    7.0209   48.6943  127.4763 O   0  0  0  0  0  0  0  0  0  0  0  0
    7.2487   49.4002  129.8654 N   0  0  0  0  0  0  0  0  0  0  0  0
    6.7073   49.2885  131.2598 H   0  0  0  0  0  0  0  0  0  0  0  0
    8.4255   50.2149  129.4165 C   0  0  0  0  0  0  0  0  0  0  0  0
    9.3554   49.1670  129.9524 C   0  0  0  0  0  0  0  0  0  0  0  0
   10.1909   49.6556  131.0984 O   0  0  0  0  0  0  0  0  0  0  0  0
    9.3760   47.7982  129.3392 N   0  0  0  0  0  0  0  0  0  0  0  0
    8.4067   47.6498  128.2041 H   0  0  0  0  0  0  0  0  0  0  0  0
   10.3059   46.7503  129.8751 C   0  0  0  0  0  0  0  0  0  0  0  0
   10.6602   46.3482  128.4741 C   0  0  0  0  0  0  0  0  0  0  0  0
    9.5983   45.8256  127.5526 N   0  0  0  0  0  0  0  0  0  0  0  0
   12.1157   46.5329  128.1617 O   0  0  0  0  0  0  0  0  0  0  0  0
    9.5959   45.3455  126.1314 H   0  0  0  0  0  0  0  0  0  0  0  0
    8.2425   45.7710  128.1919 H   0  0  0  0  0  0  0  0  0  0  0  0
    9.9516   47.1524  131.2761 C   0  0  0  0  0  0  0  0  0  0  0  0
    9.5974   47.5545  132.6771 C   0  0  0  0  0  0  0  0  0  0  0  0
    8.1600   47.7426  133.0627 C   0  0  0  0  0  0  0  0  0  0  0  0
    7.8057   48.1447  134.4637 C   0  0  0  0  0  0  0  0  0  0  0  0
    8.8888   48.3587  135.4791 C   0  0  0  0  0  0  0  0  0  0  0  0
   10.3261   48.1706  135.0936 C   0  0  0  0  0  0  0  0  0  0  0  0
   10.6804   47.7685  133.6926 C   0  0  0  0  0  0  0  0  0  0  0  0
    7.4956   51.2628  128.8806 C   0  0  0  0  0  0  0  0  0  0  0  0
    6.5657   52.3107  128.3447 C   0  0  0  0  0  0  0  0  0  0  0  0
    7.1165   53.5987  127.8082 N   0  0  0  0  0  0  0  0  0  0  0  0
    5.0850   52.0707  128.3454 N   0  0  0  0  0  0  0  0  0  0  0  0
    6.1866   54.6466  127.2723 H   0  0  0  0  0  0  0  0  0  0  0  0
    8.5972   53.8387  127.8076 H   0  0  0  0  0  0  0  0  0  0  0  0
    4.1551   53.1186  127.8094 H   0  0  0  0  0  0  0  0  0  0  0  0
    6.8463   45.8772  130.2102 C   0  0  0  0  0  0  0  0  0  0  0  0
    6.6250   45.3034  128.8422 O   0  0  0  0  0  0  0  0  0  0  0  0
    6.1312   47.1787  130.4226 N   0  0  0  0  0  0  0  0  0  0  0  0
    6.1352   48.0187  131.6653 H   0  0  0  0  0  0  0  0  0  0  0  0
    7.6748   45.2881  131.3131 C   0  0  0  0  0  0  0  0  0  0  0  0
    8.1521   42.9352  130.3201 C   0  0  0  0  0  0  0  0  0  0  0  0
    7.7046   42.4451  130.7616 O   0  0  0  0  0  0  0  0  0  0  0  0
    8.3818   44.4175  130.3170 N   0  0  0  0  0  0  0  0  0  0  0  0
    9.3185   45.0292  129.3177 H   0  0  0  0  0  0  0  0  0  0  0  0
    8.8590   42.0646  129.3240 C   0  0  0  0  0  0  0  0  0  0  0  0
   10.1679   42.6890  129.7072 N   0  0  0  0  0  0  0  0  0  0  0  0
   11.0313   43.3246  128.6580 C   0  0  0  0  0  0  0  0  0  0  0  0
   10.7420   43.4244  127.1895 O   0  0  0  0  0  0  0  0  0  0  0  0
   10.7631   42.7666  131.0819 H   0  0  0  0  0  0  0  0  0  0  0  0
   12.3403   43.9491  129.0412 O   0  0  0  0  0  0  0  0  0  0  0  0
   12.6037   44.3217  130.4701 C   0  0  0  0  0  0  0  0  0  0  0  0
   12.8672   44.6943  131.8990 C   0  0  0  0  0  0  0  0  0  0  0  0
   12.9974   43.6237  132.9415 C   0  0  0  0  0  0  0  0  0  0  0  0
   13.2609   43.9964  134.3703 C   0  0  0  0  0  0  0  0  0  0  0  0
   13.3942   45.4397  134.7567 C   0  0  0  0  0  0  0  0  0  0  0  0
   13.2639   46.5103  133.7142 C   0  0  0  0  0  0  0  0  0  0  0  0
   13.0005   46.1376  132.2853 C   0  0  0  0  0  0  0  0  0  0  0  0
    9.5660   41.1940  128.3279 C   0  0  0  0  0  0  0  0  0  0  0  0
   10.2729   40.3234  127.3317 C   0  0  0  0  0  0  0  0  0  0  0  0
   10.9798   39.4528  126.3356 C   0  0  0  0  0  0  0  0  0  0  0  0
   11.6868   38.5821  125.3395 N   0  0  0  0  0  0  0  0  0  0  0  0
   11.5644   38.8693  123.8724 H   0  0  0  0  0  0  0  0  0  0  0  0
   12.2485   36.0461  125.2823 N   0  0  0  0  0  0  0  0  0  0  0  0
   12.5160   37.4244  125.8105 C   0  0  0  0  0  0  0  0  0  0  0  0
   13.6128   37.6448  126.8098 N   0  0  0  0  0  0  0  0  0  0  0  0
   13.0778   34.8884  125.7533 H   0  0  0  0  0  0  0  0  0  0  0  0
   11.1204   36.0059  124.2945 H   0  0  0  0  0  0  0  0  0  0  0  0
   14.4421   36.4869  127.2808 H   0  0  0  0  0  0  0  0  0  0  0  0
    8.5034   44.6990  132.4160 C   0  0  0  0  0  0  0  0  0  0  0  0
    9.3320   44.1099  133.5190 C   0  0  0  0  0  0  0  0  0  0  0  0
    9.7987   42.6872  133.4284 C   0  0  0  0  0  0  0  0  0  0  0  0
   10.6272   42.0980  134.5313 C   0  0  0  0  0  0  0  0  0  0  0  0
   10.9891   42.9316  135.7248 C   0  0  0  0  0  0  0  0  0  0  0  0
   10.5224   44.3543  135.8153 C   0  0  0  0  0  0  0  0  0  0  0  0
    9.6938   44.9434  134.7124 C   0  0  0  0  0  0  0  0  0  0  0  0
    4.1259   46.9531  129.7685 C   0  0  0  0  0  0  0  0  0  0  0  0
    2.9491   46.1384  130.2174 C   0  0  0  0  0  0  0  0  0  0  0  0
    1.7723   45.3238  130.6663 C   0  0  0  0  0  0  0  0  0  0  0  0
    0.5955   44.5091  131.1152 N   0  0  0  0  0  0  0  0  0  0  0  0
   -0.6939   44.3029  130.3770 H   0  0  0  0  0  0  0  0  0  0  0  0
    0.6374   43.7937  132.4329 C   0  0  0  0  0  0  0  0  0  0  0  0
    1.9561   43.4931  133.0814 N   0  0  0  0  0  0  0  0  0  0  0  0
   -0.6394   43.3790  133.1021 N   0  0  0  0  0  0  0  0  0  0  0  0
    1.9981   42.7777  134.3992 H   0  0  0  0  0  0  0  0  0  0  0  0
    3.2329   43.9078  132.4122 H   0  0  0  0  0  0  0  0  0  0  0  0
   -0.5975   42.6636  134.4198 H   0  0  0  0  0  0  0  0  0  0  0  0
 58 59  1  0  0  0
 59 60  2  0  0  0
 59 56  1  0  0  0
 56 55  1  0  0  0
 55 54  1  0  0  0
 54 53  1  0  0  0
 53 40  1  0  0  0
 40 41  1  0  0  0
 41 42  1  0  0  0
 42 43  2  0  0  0
 42 45  1  0  0  0
 45 46  1  0  0  0
 46 47  1  0  0  0
 47 48  2  0  0  0
 48 49  1  0  0  0
 49 50  2  0  0  0
 50 51  1  0  0  0
 51 52  2  0  0  0
 40 36  1  0  0  0
 36 37  2  0  0  0
 36 38  1  0  0  0
 38 35  1  0  0  0
 35 64  1  0  0  0
 64 65  1  0  0  0
 65 66  2  0  0  0
 66 67  1  0  0  0
 67 68  2  0  0  0
 68 69  1  0  0  0
 69 70  2  0  0  0
 35 31  1  0  0  0
 31 32  2  0  0  0
 31 33  1  0  0  0
 33  1  1  0  0  0
  1 71  1  0  0  0
 71 72  1  0  0  0
 72 73  1  0  0  0
 73 74  1  0  0  0
 74 76  1  0  0  0
 76 77  1  0  0  0
 76 78  2  0  0  0
  1  2  1  0  0  0
  2  3  2  0  0  0
  2  4  1  0  0  0
  4  6  1  0  0  0
  6 24  1  0  0  0
 24 25  1  0  0  0
 25 26  1  0  0  0
 25 27  2  0  0  0
  6  7  1  0  0  0
  7  8  2  0  0  0
  7  9  1  0  0  0
  9 11  1  0  0  0
 11 17  1  0  0  0
 17 18  1  0  0  0
 18 19  2  0  0  0
 19 20  1  0  0  0
 20 21  2  0  0  0
 21 22  1  0  0  0
 22 23  2  0  0  0
 11 12  1  0  0  0
 12 13  1  0  0  0
 12 14  2  0  0  0
 52 47  1  0  0  0
 70 65  1  0  0  0
 23 18  1  0  0  0
 58 61  1  0  0  0
 58 62  1  0  0  0
 60 63  1  0  0  0
 56 57  1  0  0  0
 41 44  1  0  0  0
 38 39  1  0  0  0
 33 34  1  0  0  0
 74 75  1  0  0  0
 77 79  1  0  0  0
 77 80  1  0  0  0
 78 81  1  0  0  0
  4  5  1  0  0  0
 26 28  1  0  0  0
 26 29  1  0  0  0
 27 30  1  0  0  0
  9 10  1  0  0  0
 13 15  1  0  0  0
 13 16  1  0  0  0
M  END
> <minimizedAffinity>
24.20001

> <CNNscore>
0.3344767988

> <CNNaffinity>
8.4186916351

> <CNN_VS>
2.8158569336

> <CNNaffinity_variance>
1.3998346329

$$$$
[H]N=C(N([H])[H])N([H])C([H])([H])C([H])([H])C([H])([H])[C@@]([H])(C(=O)N([H])[C@]([H])(C(=O)N([H])[C@]([H])(C(=O)N([H])[H])C([H])([H])c1c([H])c([H])c([H])c([H])c1[H])C([H])([H])C(=N[H])N([H])[H])N([H])C(=O)[C@@]([H])(N([H])C(=O)[C@@]([H])(N([H])C(=O)OC([H])([H])c1c([H])c([H])c([H])c([H])c1[H])C([H])([H])C([H])([H])C([H])([H])N([H])C(=N[H])N([H])[H])C([H])([H])c1c([H])c([H])c([H])c([H])c1[H]


 81 83  0  0  0  0  0  0  0  0999 V2000
    5.0232   47.2790  129.3438 C   0  0  0  0  0  0  0  0  0  0  0  0
    6.1772   48.0446  128.7675 C   0  0  0  0  0  0  0  0  0  0  0  0
    6.2680   48.6435  127.3952 O   0  0  0  0  0  0  0  0  0  0  0  0
    7.4089   48.2775  129.5913 N   0  0  0  0  0  0  0  0  0  0  0  0
    7.3182   47.6786  130.9635 H   0  0  0  0  0  0  0  0  0  0  0  0
    8.5630   49.0431  129.0149 C   0  0  0  0  0  0  0  0  0  0  0  0
    7.8826   50.3330  129.3661 C   0  0  0  0  0  0  0  0  0  0  0  0
    8.0636   50.7185  130.8044 O   0  0  0  0  0  0  0  0  0  0  0  0
    7.1221   51.0894  128.3175 N   0  0  0  0  0  0  0  0  0  0  0  0
    7.1439   50.4159  126.9774 H   0  0  0  0  0  0  0  0  0  0  0  0
    6.4417   52.3793  128.6686 C   0  0  0  0  0  0  0  0  0  0  0  0
    5.7795   51.7119  129.8374 C   0  0  0  0  0  0  0  0  0  0  0  0
    6.0021   52.2356  131.2252 N   0  0  0  0  0  0  0  0  0  0  0  0
    4.9321   50.5396  129.4400 O   0  0  0  0  0  0  0  0  0  0  0  0
    5.5143   51.8276  132.5838 H   0  0  0  0  0  0  0  0  0  0  0  0
    6.9114   53.4281  131.2628 H   0  0  0  0  0  0  0  0  0  0  0  0
    7.1039   53.0467  127.4998 C   0  0  0  0  0  0  0  0  0  0  0  0
    7.7662   53.7142  126.3311 C   0  0  0  0  0  0  0  0  0  0  0  0
    7.9031   52.9830  125.0286 C   0  0  0  0  0  0  0  0  0  0  0  0
    8.5654   53.6504  123.8598 C   0  0  0  0  0  0  0  0  0  0  0  0
    9.0906   55.0490  123.9936 C   0  0  0  0  0  0  0  0  0  0  0  0
    8.9536   55.7802  125.2961 C   0  0  0  0  0  0  0  0  0  0  0  0
    8.2914   55.1128  126.4648 C   0  0  0  0  0  0  0  0  0  0  0  0
    9.2433   47.7532  128.6638 C   0  0  0  0  0  0  0  0  0  0  0  0
    9.9236   46.4633  128.3127 C   0  0  0  0  0  0  0  0  0  0  0  0
    9.2189   45.4521  127.4578 N   0  0  0  0  0  0  0  0  0  0  0  0
   11.3088   46.1846  128.8165 N   0  0  0  0  0  0  0  0  0  0  0  0
    9.8992   44.1622  127.1067 H   0  0  0  0  0  0  0  0  0  0  0  0
    7.8337   45.7308  126.9540 H   0  0  0  0  0  0  0  0  0  0  0  0
   11.9891   44.8947  128.4654 H   0  0  0  0  0  0  0  0  0  0  0  0
    6.8786   45.7523  130.3321 C   0  0  0  0  0  0  0  0  0  0  0  0
    6.8888   45.1787  128.9462 O   0  0  0  0  0  0  0  0  0  0  0  0
    5.8800   46.8587  130.5011 N   0  0  0  0  0  0  0  0  0  0  0  0
    5.6086   47.6472  131.7480 H   0  0  0  0  0  0  0  0  0  0  0  0
    7.7354   45.3320  131.4893 C   0  0  0  0  0  0  0  0  0  0  0  0
    8.1748   43.1170  130.2045 C   0  0  0  0  0  0  0  0  0  0  0  0
    7.5571   42.6535  130.4021 O   0  0  0  0  0  0  0  0  0  0  0  0
    8.5858   44.5144  130.5629 N   0  0  0  0  0  0  0  0  0  0  0  0
    9.8471   45.0942  129.9947 H   0  0  0  0  0  0  0  0  0  0  0  0
    9.0252   42.2994  129.2780 C   0  0  0  0  0  0  0  0  0  0  0  0
   10.1957   43.1928  129.5640 N   0  0  0  0  0  0  0  0  0  0  0  0
   11.1782   42.8221  130.6351 C   0  0  0  0  0  0  0  0  0  0  0  0
   11.1431   41.6040  131.5099 O   0  0  0  0  0  0  0  0  0  0  0  0
   10.5338   44.4844  128.8802 H   0  0  0  0  0  0  0  0  0  0  0  0
   12.3487   43.7155  130.9210 O   0  0  0  0  0  0  0  0  0  0  0  0
   12.1762   44.9199  131.7982 C   0  0  0  0  0  0  0  0  0  0  0  0
   12.0038   46.1244  132.6755 C   0  0  0  0  0  0  0  0  0  0  0  0
   12.8092   46.2573  133.9339 C   0  0  0  0  0  0  0  0  0  0  0  0
   12.6367   47.4617  134.8110 C   0  0  0  0  0  0  0  0  0  0  0  0
   11.6588   48.5334  134.4298 C   0  0  0  0  0  0  0  0  0  0  0  0
   10.8534   48.4005  133.1714 C   0  0  0  0  0  0  0  0  0  0  0  0
   11.0259   47.1960  132.2943 C   0  0  0  0  0  0  0  0  0  0  0  0
    9.8756   41.4818  128.3515 C   0  0  0  0  0  0  0  0  0  0  0  0
   10.7260   40.6642  127.4251 C   0  0  0  0  0  0  0  0  0  0  0  0
   11.5763   39.8466  126.4986 C   0  0  0  0  0  0  0  0  0  0  0  0
   12.4267   39.0290  125.5721 N   0  0  0  0  0  0  0  0  0  0  0  0
   12.7270   39.5307  124.1907 H   0  0  0  0  0  0  0  0  0  0  0  0
   14.0887   37.6675  127.0330 N   0  0  0  0  0  0  0  0  0  0  0  0
   12.9768   37.7098  126.0269 C   0  0  0  0  0  0  0  0  0  0  0  0
   12.4152   36.4328  125.4757 N   0  0  0  0  0  0  0  0  0  0  0  0
   14.6388   36.3482  127.4878 H   0  0  0  0  0  0  0  0  0  0  0  0
   14.5291   39.0308  127.4772 H   0  0  0  0  0  0  0  0  0  0  0  0
   12.9653   35.1135  125.9306 H   0  0  0  0  0  0  0  0  0  0  0  0
    8.5921   44.9117  132.6466 C   0  0  0  0  0  0  0  0  0  0  0  0
    9.4489   44.4914  133.8039 C   0  0  0  0  0  0  0  0  0  0  0  0
   10.2953   43.2571  133.7012 C   0  0  0  0  0  0  0  0  0  0  0  0
   11.1520   42.8368  134.8585 C   0  0  0  0  0  0  0  0  0  0  0  0
   11.1624   43.6508  136.1185 C   0  0  0  0  0  0  0  0  0  0  0  0
   10.3161   44.8849  136.2211 C   0  0  0  0  0  0  0  0  0  0  0  0
    9.4593   45.3052  135.0639 C   0  0  0  0  0  0  0  0  0  0  0  0
    3.8692   46.5135  129.9202 C   0  0  0  0  0  0  0  0  0  0  0  0
    2.7151   45.7479  130.4965 C   0  0  0  0  0  0  0  0  0  0  0  0
    1.5611   44.9824  131.0728 C   0  0  0  0  0  0  0  0  0  0  0  0
    0.4071   44.2168  131.6491 N   0  0  0  0  0  0  0  0  0  0  0  0
   -0.9148   43.9472  130.9935 H   0  0  0  0  0  0  0  0  0  0  0  0
    0.5104   43.6269  133.0243 C   0  0  0  0  0  0  0  0  0  0  0  0
   -0.6879   42.9827  133.6560 N   0  0  0  0  0  0  0  0  0  0  0  0
    1.8120   43.6812  133.7679 N   0  0  0  0  0  0  0  0  0  0  0  0
   -0.5847   42.3927  135.0312 H   0  0  0  0  0  0  0  0  0  0  0  0
   -1.9895   42.9284  132.9124 H   0  0  0  0  0  0  0  0  0  0  0  0
    1.9153   43.0912  135.1431 H   0  0  0  0  0  0  0  0  0  0  0  0
 58 59  1  0  0  0
 59 60  2  0  0  0
 59 56  1  0  0  0
 56 55  1  0  0  0
 55 54  1  0  0  0
 54 53  1  0  0  0
 53 40  1  0  0  0
 40 41  1  0  0  0
 41 42  1  0  0  0
 42 43  2  0  0  0
 42 45  1  0  0  0
 45 46  1  0  0  0
 46 47  1  0  0  0
 47 48  2  0  0  0
 48 49  1  0  0  0
 49 50  2  0  0  0
 50 51  1  0  0  0
 51 52  2  0  0  0
 40 36  1  0  0  0
 36 37  2  0  0  0
 36 38  1  0  0  0
 38 35  1  0  0  0
 35 64  1  0  0  0
 64 65  1  0  0  0
 65 66  2  0  0  0
 66 67  1  0  0  0
 67 68  2  0  0  0
 68 69  1  0  0  0
 69 70  2  0  0  0
 35 31  1  0  0  0
 31 32  2  0  0  0
 31 33  1  0  0  0
 33  1  1  0  0  0
  1 71  1  0  0  0
 71 72  1  0  0  0
 72 73  1  0  0  0
 73 74  1  0  0  0
 74 76  1  0  0  0
 76 77  1  0  0  0
 76 78  2  0  0  0
  1  2  1  0  0  0
  2  3  2  0  0  0
  2  4  1  0  0  0
  4  6  1  0  0  0
  6 24  1  0  0  0
 24 25  1  0  0  0
 25 26  1  0  0  0
 25 27  2  0  0  0
  6  7  1  0  0  0
  7  8  2  0  0  0
  7  9  1  0  0  0
  9 11  1  0  0  0
 11 17  1  0  0  0
 17 18  1  0  0  0
 18 19  2  0  0  0
 19 20  1  0  0  0
 20 21  2  0  0  0
 21 22  1  0  0  0
 22 23  2  0  0  0
 11 12  1  0  0  0
 12 13  1  0  0  0
 12 14  2  0  0  0
 52 47  1  0  0  0
 70 65  1  0  0  0
 23 18  1  0  0  0
 58 61  1  0  0  0
 58 62  1  0  0  0
 60 63  1  0  0  0
 56 57  1  0  0  0
 41 44  1  0  0  0
 38 39  1  0  0  0
 33 34  1  0  0  0
 74 75  1  0  0  0
 77 79  1  0  0  0
 77 80  1  0  0  0
 78 81  1  0  0  0
  4  5  1  0  0  0
 26 28  1  0  0  0
 26 29  1  0  0  0
 27 30  1  0  0  0
  9 10  1  0  0  0
 13 15  1  0  0  0
 13 16  1  0  0  0
M  END
> <minimizedAffinity>
22.62938

> <CNNscore>
0.3247122765

> <CNNaffinity>
8.2921314240

> <CNN_VS>
2.6925568581

> <CNNaffinity_variance>
1.0596635342

$$$$
[H]N=C(N([H])[H])N([H])C([H])([H])C([H])([H])C([H])([H])[C@@]([H])(C(=O)N([H])[C@]([H])(C(=O)N([H])[C@]([H])(C(=O)N([H])[H])C([H])([H])c1c([H])c([H])c([H])c([H])c1[H])C([H])([H])C(=N[H])N([H])[H])N([H])C(=O)[C@@]([H])(N([H])C(=O)[C@@]([H])(N([H])C(=O)OC([H])([H])c1c([H])c([H])c([H])c([H])c1[H])C([H])([H])C([H])([H])C([H])([H])N([H])C(=N[H])N([H])[H])C([H])([H])c1c([H])c([H])c([H])c([H])c1[H]


 81 83  0  0  0  0  0  0  0  0999 V2000
    5.8304   49.0009  129.1066 C   0  0  0  0  0  0  0  0  0  0  0  0
    6.9521   49.9895  128.9857 C   0  0  0  0  0  0  0  0  0  0  0  0
    8.4209   49.7068  129.0994 O   0  0  0  0  0  0  0  0  0  0  0  0
    6.6522   51.4355  128.7228 N   0  0  0  0  0  0  0  0  0  0  0  0
    5.1835   51.7182  128.6091 H   0  0  0  0  0  0  0  0  0  0  0  0
    7.7738   52.4241  128.6019 C   0  0  0  0  0  0  0  0  0  0  0  0
    7.2966   52.7976  127.2297 C   0  0  0  0  0  0  0  0  0  0  0  0
    6.5058   51.7084  126.5676 O   0  0  0  0  0  0  0  0  0  0  0  0
    7.6265   54.1464  126.6623 N   0  0  0  0  0  0  0  0  0  0  0  0
    8.4380   54.9931  127.5974 H   0  0  0  0  0  0  0  0  0  0  0  0
    7.1493   54.5199  125.2901 C   0  0  0  0  0  0  0  0  0  0  0  0
    8.3502   53.8507  124.6902 C   0  0  0  0  0  0  0  0  0  0  0  0
    9.7289   54.3025  125.0709 N   0  0  0  0  0  0  0  0  0  0  0  0
    7.9922   52.7532  123.7324 O   0  0  0  0  0  0  0  0  0  0  0  0
   11.1117   53.8729  124.6790 H   0  0  0  0  0  0  0  0  0  0  0  0
    9.7240   55.4306  126.0595 H   0  0  0  0  0  0  0  0  0  0  0  0
    5.9484   55.1892  125.8900 C   0  0  0  0  0  0  0  0  0  0  0  0
    4.7474   55.8584  126.4899 C   0  0  0  0  0  0  0  0  0  0  0  0
    4.9250   56.9921  127.4560 C   0  0  0  0  0  0  0  0  0  0  0  0
    3.7240   57.6613  128.0559 C   0  0  0  0  0  0  0  0  0  0  0  0
    2.3456   57.1970  127.6897 C   0  0  0  0  0  0  0  0  0  0  0  0
    2.1680   56.0633  126.7236 C   0  0  0  0  0  0  0  0  0  0  0  0
    3.3690   55.3941  126.1237 C   0  0  0  0  0  0  0  0  0  0  0  0
    8.2511   52.0505  129.9740 C   0  0  0  0  0  0  0  0  0  0  0  0
    8.7283   51.6770  131.3461 C   0  0  0  0  0  0  0  0  0  0  0  0
    8.9960   52.7459  132.3638 N   0  0  0  0  0  0  0  0  0  0  0  0
    8.9379   50.2346  131.7004 N   0  0  0  0  0  0  0  0  0  0  0  0
    9.4732   52.3723  133.7360 H   0  0  0  0  0  0  0  0  0  0  0  0
    8.7864   54.1883  132.0095 H   0  0  0  0  0  0  0  0  0  0  0  0
    9.4151   49.8610  133.0725 H   0  0  0  0  0  0  0  0  0  0  0  0
    7.1460   47.0051  130.1247 C   0  0  0  0  0  0  0  0  0  0  0  0
    6.9887   46.4360  128.7458 O   0  0  0  0  0  0  0  0  0  0  0  0
    6.5208   48.3605  130.2742 N   0  0  0  0  0  0  0  0  0  0  0  0
    6.4930   49.2105  131.5099 H   0  0  0  0  0  0  0  0  0  0  0  0
    7.8364   46.3647  131.2923 C   0  0  0  0  0  0  0  0  0  0  0  0
    8.2302   44.0966  130.0879 C   0  0  0  0  0  0  0  0  0  0  0  0
    7.6348   43.6344  130.3473 O   0  0  0  0  0  0  0  0  0  0  0  0
    8.6391   45.5154  130.3518 N   0  0  0  0  0  0  0  0  0  0  0  0
    9.8507   46.0851  129.6752 H   0  0  0  0  0  0  0  0  0  0  0  0
    9.0329   43.2473  129.1475 C   0  0  0  0  0  0  0  0  0  0  0  0
   10.2875   43.9362  129.5962 N   0  0  0  0  0  0  0  0  0  0  0  0
   11.2103   43.2577  130.5648 C   0  0  0  0  0  0  0  0  0  0  0  0
   11.0342   41.9012  131.1805 O   0  0  0  0  0  0  0  0  0  0  0  0
   10.7702   45.2941  129.1800 H   0  0  0  0  0  0  0  0  0  0  0  0
   12.4650   43.9466  131.0135 O   0  0  0  0  0  0  0  0  0  0  0  0
   12.3906   45.0685  132.0063 C   0  0  0  0  0  0  0  0  0  0  0  0
   12.3161   46.1904  132.9992 C   0  0  0  0  0  0  0  0  0  0  0  0
   13.1814   46.1665  134.2242 C   0  0  0  0  0  0  0  0  0  0  0  0
   13.1070   47.2884  135.2170 C   0  0  0  0  0  0  0  0  0  0  0  0
   12.1672   48.4342  134.9848 C   0  0  0  0  0  0  0  0  0  0  0  0
   11.3019   48.4582  133.7599 C   0  0  0  0  0  0  0  0  0  0  0  0
   11.3764   47.3363  132.7670 C   0  0  0  0  0  0  0  0  0  0  0  0
    9.8356   42.3980  128.2070 C   0  0  0  0  0  0  0  0  0  0  0  0
   10.6382   41.5487  127.2666 C   0  0  0  0  0  0  0  0  0  0  0  0
   11.4409   40.6995  126.3261 C   0  0  0  0  0  0  0  0  0  0  0  0
   12.2436   39.8502  125.3857 N   0  0  0  0  0  0  0  0  0  0  0  0
   12.9610   40.4830  124.2304 H   0  0  0  0  0  0  0  0  0  0  0  0
   13.4126   37.7968  126.4659 N   0  0  0  0  0  0  0  0  0  0  0  0
   12.3287   38.3681  125.6005 C   0  0  0  0  0  0  0  0  0  0  0  0
   11.3301   37.4574  124.9500 N   0  0  0  0  0  0  0  0  0  0  0  0
   13.4978   36.3147  126.6807 H   0  0  0  0  0  0  0  0  0  0  0  0
   14.3215   38.8453  127.0355 H   0  0  0  0  0  0  0  0  0  0  0  0
   11.4153   35.9752  125.1649 H   0  0  0  0  0  0  0  0  0  0  0  0
    8.5268   45.7243  132.4598 C   0  0  0  0  0  0  0  0  0  0  0  0
    9.2172   45.0839  133.6274 C   0  0  0  0  0  0  0  0  0  0  0  0
    9.8094   43.7127  133.4887 C   0  0  0  0  0  0  0  0  0  0  0  0
   10.4998   43.0723  134.6562 C   0  0  0  0  0  0  0  0  0  0  0  0
   10.5980   43.8031  135.9625 C   0  0  0  0  0  0  0  0  0  0  0  0
   10.0058   45.1742  136.1012 C   0  0  0  0  0  0  0  0  0  0  0  0
    9.3154   45.8146  134.9337 C   0  0  0  0  0  0  0  0  0  0  0  0
    4.7088   48.0123  129.2276 C   0  0  0  0  0  0  0  0  0  0  0  0
    3.5872   47.0237  129.3486 C   0  0  0  0  0  0  0  0  0  0  0  0
    2.4656   46.0351  129.4696 C   0  0  0  0  0  0  0  0  0  0  0  0
    1.3440   45.0465  129.5906 N   0  0  0  0  0  0  0  0  0  0  0  0
    1.2485   43.9034  130.5572 H   0  0  0  0  0  0  0  0  0  0  0  0
    0.1547   45.1465  128.6820 C   0  0  0  0  0  0  0  0  0  0  0  0
   -0.2592   43.9652  127.8556 N   0  0  0  0  0  0  0  0  0  0  0  0
   -0.6206   46.4280  128.5997 N   0  0  0  0  0  0  0  0  0  0  0  0
   -1.4485   44.0652  126.9469 H   0  0  0  0  0  0  0  0  0  0  0  0
    0.5161   42.6837  127.9378 H   0  0  0  0  0  0  0  0  0  0  0  0
   -1.8098   46.5281  127.6911 H   0  0  0  0  0  0  0  0  0  0  0  0
 58 59  1  0  0  0
 59 60  2  0  0  0
 59 56  1  0  0  0
 56 55  1  0  0  0
 55 54  1  0  0  0
 54 53  1  0  0  0
 53 40  1  0  0  0
 40 41  1  0  0  0
 41 42  1  0  0  0
 42 43  2  0  0  0
 42 45  1  0  0  0
 45 46  1  0  0  0
 46 47  1  0  0  0
 47 48  2  0  0  0
 48 49  1  0  0  0
 49 50  2  0  0  0
 50 51  1  0  0  0
 51 52  2  0  0  0
 40 36  1  0  0  0
 36 37  2  0  0  0
 36 38  1  0  0  0
 38 35  1  0  0  0
 35 64  1  0  0  0
 64 65  1  0  0  0
 65 66  2  0  0  0
 66 67  1  0  0  0
 67 68  2  0  0  0
 68 69  1  0  0  0
 69 70  2  0  0  0
 35 31  1  0  0  0
 31 32  2  0  0  0
 31 33  1  0  0  0
 33  1  1  0  0  0
  1 71  1  0  0  0
 71 72  1  0  0  0
 72 73  1  0  0  0
 73 74  1  0  0  0
 74 76  1  0  0  0
 76 77  1  0  0  0
 76 78  2  0  0  0
  1  2  1  0  0  0
  2  3  2  0  0  0
  2  4  1  0  0  0
  4  6  1  0  0  0
  6 24  1  0  0  0
 24 25  1  0  0  0
 25 26  1  0  0  0
 25 27  2  0  0  0
  6  7  1  0  0  0
  7  8  2  0  0  0
  7  9  1  0  0  0
  9 11  1  0  0  0
 11 17  1  0  0  0
 17 18  1  0  0  0
 18 19  2  0  0  0
 19 20  1  0  0  0
 20 21  2  0  0  0
 21 22  1  0  0  0
 22 23  2  0  0  0
 11 12  1  0  0  0
 12 13  1  0  0  0
 12 14  2  0  0  0
 52 47  1  0  0  0
 70 65  1  0  0  0
 23 18  1  0  0  0
 58 61  1  0  0  0
 58 62  1  0  0  0
 60 63  1  0  0  0
 56 57  1  0  0  0
 41 44  1  0  0  0
 38 39  1  0  0  0
 33 34  1  0  0  0
 74 75  1  0  0  0
 77 79  1  0  0  0
 77 80  1  0  0  0
 78 81  1  0  0  0
  4  5  1  0  0  0
 26 28  1  0  0  0
 26 29  1  0  0  0
 27 30  1  0  0  0
  9 10  1  0  0  0
 13 15  1  0  0  0
 13 16  1  0  0  0
M  END
> <minimizedAffinity>
25.95022

> <CNNscore>
0.3199276626

> <CNNaffinity>
7.9007086754

> <CNN_VS>
2.5276553631

> <CNNaffinity_variance>
1.1029096842

$$$$
[H]N=C(N([H])[H])N([H])C([H])([H])C([H])([H])C([H])([H])[C@@]([H])(C(=O)N([H])[C@]([H])(C(=O)N([H])[C@]([H])(C(=O)N([H])[H])C([H])([H])c1c([H])c([H])c([H])c([H])c1[H])C([H])([H])C(=N[H])N([H])[H])N([H])C(=O)[C@@]([H])(N([H])C(=O)[C@@]([H])(N([H])C(=O)OC([H])([H])c1c([H])c([H])c([H])c([H])c1[H])C([H])([H])C([H])([H])C([H])([H])N([H])C(=N[H])N([H])[H])C([H])([H])c1c([H])c([H])c([H])c([H])c1[H]


 81 83  0  0  0  0  0  0  0  0999 V2000
    8.9769   46.2009  131.9846 C   0  0  0  0  0  0  0  0  0  0  0  0
    8.8886   44.7237  131.7397 C   0  0  0  0  0  0  0  0  0  0  0  0
    7.8142   43.7920  132.2172 O   0  0  0  0  0  0  0  0  0  0  0  0
    9.9517   44.0313  130.9395 N   0  0  0  0  0  0  0  0  0  0  0  0
   11.0259   44.9628  130.4620 H   0  0  0  0  0  0  0  0  0  0  0  0
    9.8634   42.5540  130.6946 C   0  0  0  0  0  0  0  0  0  0  0  0
   10.1359   42.2969  132.1470 C   0  0  0  0  0  0  0  0  0  0  0  0
   11.5536   41.8856  132.4135 O   0  0  0  0  0  0  0  0  0  0  0  0
    9.0385   42.4608  133.1565 N   0  0  0  0  0  0  0  0  0  0  0  0
    7.7369   42.8852  132.5435 H   0  0  0  0  0  0  0  0  0  0  0  0
    9.3111   42.2037  134.6090 C   0  0  0  0  0  0  0  0  0  0  0  0
    8.4132   41.0029  134.5649 C   0  0  0  0  0  0  0  0  0  0  0  0
    7.0089   41.1348  134.0547 N   0  0  0  0  0  0  0  0  0  0  0  0
    9.0779   39.7553  135.0666 O   0  0  0  0  0  0  0  0  0  0  0  0
    5.8706   40.1744  133.8755 H   0  0  0  0  0  0  0  0  0  0  0  0
    6.6681   42.5329  133.6310 H   0  0  0  0  0  0  0  0  0  0  0  0
   10.2090   43.4044  134.6531 C   0  0  0  0  0  0  0  0  0  0  0  0
   11.1069   44.6052  134.6971 C   0  0  0  0  0  0  0  0  0  0  0  0
   12.5907   44.4377  134.5550 C   0  0  0  0  0  0  0  0  0  0  0  0
   13.4886   45.6385  134.5991 C   0  0  0  0  0  0  0  0  0  0  0  0
   12.9027   47.0067  134.7853 C   0  0  0  0  0  0  0  0  0  0  0  0
   11.4189   47.1741  134.9274 C   0  0  0  0  0  0  0  0  0  0  0  0
   10.5210   45.9734  134.8833 C   0  0  0  0  0  0  0  0  0  0  0  0
    9.5908   42.8112  129.2421 C   0  0  0  0  0  0  0  0  0  0  0  0
    9.3182   43.0683  127.7897 C   0  0  0  0  0  0  0  0  0  0  0  0
    8.7386   44.3822  127.3565 N   0  0  0  0  0  0  0  0  0  0  0  0
    9.6254   42.0115  126.7704 N   0  0  0  0  0  0  0  0  0  0  0  0
    8.4661   44.6393  125.9041 H   0  0  0  0  0  0  0  0  0  0  0  0
    8.4315   45.4390  128.3758 H   0  0  0  0  0  0  0  0  0  0  0  0
    9.3528   42.2686  125.3180 H   0  0  0  0  0  0  0  0  0  0  0  0
    6.9261   46.2440  130.3901 C   0  0  0  0  0  0  0  0  0  0  0  0
    7.9731   46.0390  129.3358 O   0  0  0  0  0  0  0  0  0  0  0  0
    7.4967   46.3242  131.7750 N   0  0  0  0  0  0  0  0  0  0  0  0
    6.7382   46.5231  133.0538 H   0  0  0  0  0  0  0  0  0  0  0  0
    5.4459   46.3672  130.1805 C   0  0  0  0  0  0  0  0  0  0  0  0
    6.1508   48.8675  130.1430 C   0  0  0  0  0  0  0  0  0  0  0  0
    6.3466   49.0242  130.8997 O   0  0  0  0  0  0  0  0  0  0  0  0
    5.6593   47.6456  129.4253 N   0  0  0  0  0  0  0  0  0  0  0  0
    5.3811   47.7019  127.9524 H   0  0  0  0  0  0  0  0  0  0  0  0
    6.3642   50.1459  129.3878 C   0  0  0  0  0  0  0  0  0  0  0  0
    7.8118   50.1363  129.7806 N   0  0  0  0  0  0  0  0  0  0  0  0
    8.7612   49.1795  129.1224 C   0  0  0  0  0  0  0  0  0  0  0  0
    8.4355   48.1714  128.0605 O   0  0  0  0  0  0  0  0  0  0  0  0
    8.4750   51.0085  130.8051 H   0  0  0  0  0  0  0  0  0  0  0  0
   10.2089   49.1700  129.5153 O   0  0  0  0  0  0  0  0  0  0  0  0
   10.9317   47.8665  129.6837 C   0  0  0  0  0  0  0  0  0  0  0  0
   11.6546   46.5630  129.8521 C   0  0  0  0  0  0  0  0  0  0  0  0
   11.8838   45.6738  128.6660 C   0  0  0  0  0  0  0  0  0  0  0  0
   12.6067   44.3703  128.8345 C   0  0  0  0  0  0  0  0  0  0  0  0
   13.1002   43.9560  130.1890 C   0  0  0  0  0  0  0  0  0  0  0  0
   12.8710   44.8452  131.3751 C   0  0  0  0  0  0  0  0  0  0  0  0
   12.1482   46.1486  131.2066 C   0  0  0  0  0  0  0  0  0  0  0  0
    6.5775   51.4242  128.6326 C   0  0  0  0  0  0  0  0  0  0  0  0
    6.7909   52.7026  127.8774 C   0  0  0  0  0  0  0  0  0  0  0  0
    7.0043   53.9809  127.1222 C   0  0  0  0  0  0  0  0  0  0  0  0
    7.2176   55.2592  126.3670 N   0  0  0  0  0  0  0  0  0  0  0  0
    6.5095   56.5103  126.7950 H   0  0  0  0  0  0  0  0  0  0  0  0
    8.9262   54.0631  124.8178 N   0  0  0  0  0  0  0  0  0  0  0  0
    8.1391   55.2865  125.1838 C   0  0  0  0  0  0  0  0  0  0  0  0
    8.2737   56.5371  124.3666 N   0  0  0  0  0  0  0  0  0  0  0  0
    9.8477   54.0903  123.6346 H   0  0  0  0  0  0  0  0  0  0  0  0
    8.6724   52.9060  125.7380 H   0  0  0  0  0  0  0  0  0  0  0  0
    9.1952   56.5643  123.1833 H   0  0  0  0  0  0  0  0  0  0  0  0
    3.9657   46.4904  129.9709 C   0  0  0  0  0  0  0  0  0  0  0  0
    2.4856   46.6137  129.7613 C   0  0  0  0  0  0  0  0  0  0  0  0
    1.6930   45.4289  129.2941 C   0  0  0  0  0  0  0  0  0  0  0  0
    0.2129   45.5521  129.0845 C   0  0  0  0  0  0  0  0  0  0  0  0
   -0.4748   46.8602  129.3422 C   0  0  0  0  0  0  0  0  0  0  0  0
    0.3178   48.0448  129.8094 C   0  0  0  0  0  0  0  0  0  0  0  0
    1.7979   47.9216  130.0190 C   0  0  0  0  0  0  0  0  0  0  0  0
    9.0652   47.6782  132.2296 C   0  0  0  0  0  0  0  0  0  0  0  0
    9.1535   49.1554  132.4745 C   0  0  0  0  0  0  0  0  0  0  0  0
    9.2418   50.6326  132.7195 C   0  0  0  0  0  0  0  0  0  0  0  0
    9.3301   52.1099  132.9644 N   0  0  0  0  0  0  0  0  0  0  0  0
    8.9913   53.2068  131.9990 H   0  0  0  0  0  0  0  0  0  0  0  0
    9.7992   52.6230  134.2935 C   0  0  0  0  0  0  0  0  0  0  0  0
   11.2642   52.6427  134.6152 N   0  0  0  0  0  0  0  0  0  0  0  0
    8.8034   53.1164  135.3009 N   0  0  0  0  0  0  0  0  0  0  0  0
   11.7333   53.1558  135.9444 H   0  0  0  0  0  0  0  0  0  0  0  0
   12.2600   52.1492  133.6078 H   0  0  0  0  0  0  0  0  0  0  0  0
    9.2725   53.6296  136.6300 H   0  0  0  0  0  0  0  0  0  0  0  0
 58 59  1  0  0  0
 59 60  2  0  0  0
 59 56  1  0  0  0
 56 55  1  0  0  0
 55 54  1  0  0  0
 54 53  1  0  0  0
 53 40  1  0  0  0
 40 41  1  0  0  0
 41 42  1  0  0  0
 42 43  2  0  0  0
 42 45  1  0  0  0
 45 46  1  0  0  0
 46 47  1  0  0  0
 47 48  2  0  0  0
 48 49  1  0  0  0
 49 50  2  0  0  0
 50 51  1  0  0  0
 51 52  2  0  0  0
 40 36  1  0  0  0
 36 37  2  0  0  0
 36 38  1  0  0  0
 38 35  1  0  0  0
 35 64  1  0  0  0
 64 65  1  0  0  0
 65 66  2  0  0  0
 66 67  1  0  0  0
 67 68  2  0  0  0
 68 69  1  0  0  0
 69 70  2  0  0  0
 35 31  1  0  0  0
 31 32  2  0  0  0
 31 33  1  0  0  0
 33  1  1  0  0  0
  1 71  1  0  0  0
 71 72  1  0  0  0
 72 73  1  0  0  0
 73 74  1  0  0  0
 74 76  1  0  0  0
 76 77  1  0  0  0
 76 78  2  0  0  0
  1  2  1  0  0  0
  2  3  2  0  0  0
  2  4  1  0  0  0
  4  6  1  0  0  0
  6 24  1  0  0  0
 24 25  1  0  0  0
 25 26  1  0  0  0
 25 27  2  0  0  0
  6  7  1  0  0  0
  7  8  2  0  0  0
  7  9  1  0  0  0
  9 11  1  0  0  0
 11 17  1  0  0  0
 17 18  1  0  0  0
 18 19  2  0  0  0
 19 20  1  0  0  0
 20 21  2  0  0  0
 21 22  1  0  0  0
 22 23  2  0  0  0
 11 12  1  0  0  0
 12 13  1  0  0  0
 12 14  2  0  0  0
 52 47  1  0  0  0
 70 65  1  0  0  0
 23 18  1  0  0  0
 58 61  1  0  0  0
 58 62  1  0  0  0
 60 63  1  0  0  0
 56 57  1  0  0  0
 41 44  1  0  0  0
 38 39  1  0  0  0
 33 34  1  0  0  0
 74 75  1  0  0  0
 77 79  1  0  0  0
 77 80  1  0  0  0
 78 81  1  0  0  0
  4  5  1  0  0  0
 26 28  1  0  0  0
 26 29  1  0  0  0
 27 30  1  0  0  0
  9 10  1  0  0  0
 13 15  1  0  0  0
 13 16  1  0  0  0
M  END
> <minimizedAffinity>
23.32133

> <CNNscore>
0.3174408972

> <CNNaffinity>
8.2994756699

> <CNN_VS>
2.6345930099

> <CNNaffinity_variance>
1.1964546442

$$$$
[H]N=C(N([H])[H])N([H])C([H])([H])C([H])([H])C([H])([H])[C@@]([H])(C(=O)N([H])[C@]([H])(C(=O)N([H])[C@]([H])(C(=O)N([H])[H])C([H])([H])c1c([H])c([H])c([H])c([H])c1[H])C([H])([H])C(=N[H])N([H])[H])N([H])C(=O)[C@@]([H])(N([H])C(=O)[C@@]([H])(N([H])C(=O)OC([H])([H])c1c([H])c([H])c([H])c([H])c1[H])C([H])([H])C([H])([H])C([H])([H])N([H])C(=N[H])N([H])[H])C([H])([H])c1c([H])c([H])c([H])c([H])c1[H]


 81 83  0  0  0  0  0  0  0  0999 V2000
    5.7851   49.2953  128.9676 C   0  0  0  0  0  0  0  0  0  0  0  0
    6.8471   50.3471  128.8416 C   0  0  0  0  0  0  0  0  0  0  0  0
    8.3283   50.1557  128.9812 O   0  0  0  0  0  0  0  0  0  0  0  0
    6.4649   51.7669  128.5449 N   0  0  0  0  0  0  0  0  0  0  0  0
    4.9838   51.9582  128.4052 H   0  0  0  0  0  0  0  0  0  0  0  0
    7.5269   52.8187  128.4189 C   0  0  0  0  0  0  0  0  0  0  0  0
    6.9749   53.2159  127.0819 C   0  0  0  0  0  0  0  0  0  0  0  0
    7.3087   52.2368  125.9956 O   0  0  0  0  0  0  0  0  0  0  0  0
    6.1819   54.4817  126.9439 N   0  0  0  0  0  0  0  0  0  0  0  0
    6.0374   55.2268  128.2378 H   0  0  0  0  0  0  0  0  0  0  0  0
    5.6298   54.8789  125.6070 C   0  0  0  0  0  0  0  0  0  0  0  0
    6.9769   55.4034  125.2066 C   0  0  0  0  0  0  0  0  0  0  0  0
    7.6468   54.8832  123.9694 N   0  0  0  0  0  0  0  0  0  0  0  0
    7.5071   56.4399  126.1523 O   0  0  0  0  0  0  0  0  0  0  0  0
    8.9529   55.1734  123.2911 H   0  0  0  0  0  0  0  0  0  0  0  0
    6.8328   53.8460  123.2541 H   0  0  0  0  0  0  0  0  0  0  0  0
    4.2828   54.3545  126.0074 C   0  0  0  0  0  0  0  0  0  0  0  0
    2.9357   53.8301  126.4078 C   0  0  0  0  0  0  0  0  0  0  0  0
    2.6415   52.3628  126.3061 C   0  0  0  0  0  0  0  0  0  0  0  0
    1.2944   51.8383  126.7065 C   0  0  0  0  0  0  0  0  0  0  0  0
    0.2415   52.7812  127.2087 C   0  0  0  0  0  0  0  0  0  0  0  0
    0.5356   54.2486  127.3104 C   0  0  0  0  0  0  0  0  0  0  0  0
    1.8827   54.7730  126.9100 C   0  0  0  0  0  0  0  0  0  0  0  0
    8.0790   52.4215  129.7559 C   0  0  0  0  0  0  0  0  0  0  0  0
    8.6310   52.0243  131.0928 C   0  0  0  0  0  0  0  0  0  0  0  0
    8.8989   50.5796  131.3945 N   0  0  0  0  0  0  0  0  0  0  0  0
    8.9151   53.0719  132.1282 N   0  0  0  0  0  0  0  0  0  0  0  0
    9.4509   50.1824  132.7314 H   0  0  0  0  0  0  0  0  0  0  0  0
    8.6148   49.5320  130.3591 H   0  0  0  0  0  0  0  0  0  0  0  0
    9.4672   52.6747  133.4652 H   0  0  0  0  0  0  0  0  0  0  0  0
    7.5397   47.6189  129.8956 C   0  0  0  0  0  0  0  0  0  0  0  0
    7.7005   47.2681  128.4461 O   0  0  0  0  0  0  0  0  0  0  0  0
    6.5192   48.6932  130.1289 N   0  0  0  0  0  0  0  0  0  0  0  0
    6.1114   49.2800  131.4478 H   0  0  0  0  0  0  0  0  0  0  0  0
    8.2738   47.0168  131.0569 C   0  0  0  0  0  0  0  0  0  0  0  0
   10.2456   46.2323  129.5582 C   0  0  0  0  0  0  0  0  0  0  0  0
   10.7792   46.8215  129.6173 O   0  0  0  0  0  0  0  0  0  0  0  0
    8.8842   45.9967  130.1422 N   0  0  0  0  0  0  0  0  0  0  0  0
    8.1333   44.7410  129.8116 H   0  0  0  0  0  0  0  0  0  0  0  0
   10.8560   45.2122  128.6434 C   0  0  0  0  0  0  0  0  0  0  0  0
   10.8184   44.1987  129.7486 N   0  0  0  0  0  0  0  0  0  0  0  0
   12.0541   43.9180  130.5513 C   0  0  0  0  0  0  0  0  0  0  0  0
   13.4023   44.5543  130.3853 O   0  0  0  0  0  0  0  0  0  0  0  0
    9.6389   43.3802  130.1832 H   0  0  0  0  0  0  0  0  0  0  0  0
   12.0165   42.9045  131.6564 O   0  0  0  0  0  0  0  0  0  0  0  0
   10.7036   42.4997  132.2585 C   0  0  0  0  0  0  0  0  0  0  0  0
    9.3906   42.0950  132.8605 C   0  0  0  0  0  0  0  0  0  0  0  0
    8.1129   42.3600  132.1208 C   0  0  0  0  0  0  0  0  0  0  0  0
    6.8000   41.9553  132.7228 C   0  0  0  0  0  0  0  0  0  0  0  0
    6.7649   41.2855  134.0645 C   0  0  0  0  0  0  0  0  0  0  0  0
    8.0426   41.0205  134.8042 C   0  0  0  0  0  0  0  0  0  0  0  0
    9.3555   41.4252  134.2022 C   0  0  0  0  0  0  0  0  0  0  0  0
   11.4665   44.1920  127.7287 C   0  0  0  0  0  0  0  0  0  0  0  0
   12.0770   43.1719  126.8140 C   0  0  0  0  0  0  0  0  0  0  0  0
   12.6874   42.1518  125.8993 C   0  0  0  0  0  0  0  0  0  0  0  0
   13.2979   41.1317  124.9846 N   0  0  0  0  0  0  0  0  0  0  0  0
   14.2322   41.5656  123.8944 H   0  0  0  0  0  0  0  0  0  0  0  0
   14.0584   38.6480  125.0414 N   0  0  0  0  0  0  0  0  0  0  0  0
   12.9740   39.6776  125.1602 C   0  0  0  0  0  0  0  0  0  0  0  0
   11.5658   39.2531  125.4545 N   0  0  0  0  0  0  0  0  0  0  0  0
   13.7345   37.1940  125.2169 H   0  0  0  0  0  0  0  0  0  0  0  0
   15.4026   39.2442  124.7452 H   0  0  0  0  0  0  0  0  0  0  0  0
   11.2419   37.7990  125.6301 H   0  0  0  0  0  0  0  0  0  0  0  0
    9.0079   46.4148  132.2183 C   0  0  0  0  0  0  0  0  0  0  0  0
    9.7419   45.8128  133.3796 C   0  0  0  0  0  0  0  0  0  0  0  0
   11.2258   45.6063  133.3033 C   0  0  0  0  0  0  0  0  0  0  0  0
   11.9598   45.0043  134.4647 C   0  0  0  0  0  0  0  0  0  0  0  0
   11.2101   44.6087  135.7023 C   0  0  0  0  0  0  0  0  0  0  0  0
    9.7264   44.8152  135.7784 C   0  0  0  0  0  0  0  0  0  0  0  0
    8.9923   45.4172  134.6171 C   0  0  0  0  0  0  0  0  0  0  0  0
    4.7231   48.2434  129.0936 C   0  0  0  0  0  0  0  0  0  0  0  0
    3.6611   47.1916  129.2196 C   0  0  0  0  0  0  0  0  0  0  0  0
    2.5992   46.1398  129.3456 C   0  0  0  0  0  0  0  0  0  0  0  0
    1.5372   45.0879  129.4716 N   0  0  0  0  0  0  0  0  0  0  0  0
    1.6084   43.8253  130.2784 H   0  0  0  0  0  0  0  0  0  0  0  0
    0.2360   45.2447  128.7421 C   0  0  0  0  0  0  0  0  0  0  0  0
   -0.2459   44.1589  127.8262 N   0  0  0  0  0  0  0  0  0  0  0  0
   -0.5833   46.4873  128.9284 N   0  0  0  0  0  0  0  0  0  0  0  0
   -1.5471   44.3156  127.0966 H   0  0  0  0  0  0  0  0  0  0  0  0
    0.5735   42.9163  127.6399 H   0  0  0  0  0  0  0  0  0  0  0  0
   -1.8845   46.6441  128.1988 H   0  0  0  0  0  0  0  0  0  0  0  0
 58 59  1  0  0  0
 59 60  2  0  0  0
 59 56  1  0  0  0
 56 55  1  0  0  0
 55 54  1  0  0  0
 54 53  1  0  0  0
 53 40  1  0  0  0
 40 41  1  0  0  0
 41 42  1  0  0  0
 42 43  2  0  0  0
 42 45  1  0  0  0
 45 46  1  0  0  0
 46 47  1  0  0  0
 47 48  2  0  0  0
 48 49  1  0  0  0
 49 50  2  0  0  0
 50 51  1  0  0  0
 51 52  2  0  0  0
 40 36  1  0  0  0
 36 37  2  0  0  0
 36 38  1  0  0  0
 38 35  1  0  0  0
 35 64  1  0  0  0
 64 65  1  0  0  0
 65 66  2  0  0  0
 66 67  1  0  0  0
 67 68  2  0  0  0
 68 69  1  0  0  0
 69 70  2  0  0  0
 35 31  1  0  0  0
 31 32  2  0  0  0
 31 33  1  0  0  0
 33  1  1  0  0  0
  1 71  1  0  0  0
 71 72  1  0  0  0
 72 73  1  0  0  0
 73 74  1  0  0  0
 74 76  1  0  0  0
 76 77  1  0  0  0
 76 78  2  0  0  0
  1  2  1  0  0  0
  2  3  2  0  0  0
  2  4  1  0  0  0
  4  6  1  0  0  0
  6 24  1  0  0  0
 24 25  1  0  0  0
 25 26  1  0  0  0
 25 27  2  0  0  0
  6  7  1  0  0  0
  7  8  2  0  0  0
  7  9  1  0  0  0
  9 11  1  0  0  0
 11 17  1  0  0  0
 17 18  1  0  0  0
 18 19  2  0  0  0
 19 20  1  0  0  0
 20 21  2  0  0  0
 21 22  1  0  0  0
 22 23  2  0  0  0
 11 12  1  0  0  0
 12 13  1  0  0  0
 12 14  2  0  0  0
 52 47  1  0  0  0
 70 65  1  0  0  0
 23 18  1  0  0  0
 58 61  1  0  0  0
 58 62  1  0  0  0
 60 63  1  0  0  0
 56 57  1  0  0  0
 41 44  1  0  0  0
 38 39  1  0  0  0
 33 34  1  0  0  0
 74 75  1  0  0  0
 77 79  1  0  0  0
 77 80  1  0  0  0
 78 81  1  0  0  0
  4  5  1  0  0  0
 26 28  1  0  0  0
 26 29  1  0  0  0
 27 30  1  0  0  0
  9 10  1  0  0  0
 13 15  1  0  0  0
 13 16  1  0  0  0
M  END
> <minimizedAffinity>
26.85597

> <CNNscore>
0.3120304942

> <CNNaffinity>
7.9020967484

> <CNN_VS>
2.4656951427

> <CNNaffinity_variance>
1.6397708654

$$$$
[H]N=C(N([H])[H])N([H])C([H])([H])C([H])([H])C([H])([H])[C@@]([H])(C(=O)N([H])[C@]([H])(C(=O)N([H])[C@]([H])(C(=O)N([H])[H])C([H])([H])c1c([H])c([H])c([H])c([H])c1[H])C([H])([H])C(=N[H])N([H])[H])N([H])C(=O)[C@@]([H])(N([H])C(=O)[C@@]([H])(N([H])C(=O)OC([H])([H])c1c([H])c([H])c([H])c([H])c1[H])C([H])([H])C([H])([H])C([H])([H])N([H])C(=N[H])N([H])[H])C([H])([H])c1c([H])c([H])c([H])c([H])c1[H]


 81 83  0  0  0  0  0  0  0  0999 V2000
   11.1176   47.1310  132.9937 C   0  0  0  0  0  0  0  0  0  0  0  0
   11.5088   45.6966  132.7951 C   0  0  0  0  0  0  0  0  0  0  0  0
   12.3246   44.8464  133.7235 O   0  0  0  0  0  0  0  0  0  0  0  0
   11.0752   44.9651  131.5595 N   0  0  0  0  0  0  0  0  0  0  0  0
   10.2594   45.8151  130.6311 H   0  0  0  0  0  0  0  0  0  0  0  0
   11.4664   43.5307  131.3609 C   0  0  0  0  0  0  0  0  0  0  0  0
   10.3818   43.1041  132.3052 C   0  0  0  0  0  0  0  0  0  0  0  0
   10.9020   42.3497  133.4928 O   0  0  0  0  0  0  0  0  0  0  0  0
    8.9514   43.4438  132.0072 N   0  0  0  0  0  0  0  0  0  0  0  0
    8.7853   44.2105  130.7286 H   0  0  0  0  0  0  0  0  0  0  0  0
    7.8669   43.0173  132.9515 C   0  0  0  0  0  0  0  0  0  0  0  0
    7.5226   41.8763  132.0407 C   0  0  0  0  0  0  0  0  0  0  0  0
    8.2511   41.7085  130.7403 N   0  0  0  0  0  0  0  0  0  0  0  0
    6.4308   41.0023  132.5831 O   0  0  0  0  0  0  0  0  0  0  0  0
    8.1687   40.7139  129.6204 H   0  0  0  0  0  0  0  0  0  0  0  0
    9.2889   42.7667  130.5091 H   0  0  0  0  0  0  0  0  0  0  0  0
    8.2111   44.1583  133.8623 C   0  0  0  0  0  0  0  0  0  0  0  0
    8.5554   45.2994  134.7730 C   0  0  0  0  0  0  0  0  0  0  0  0
    9.7160   45.1824  135.7160 C   0  0  0  0  0  0  0  0  0  0  0  0
   10.0603   46.3235  136.6268 C   0  0  0  0  0  0  0  0  0  0  0  0
    9.2439   47.5814  136.5946 C   0  0  0  0  0  0  0  0  0  0  0  0
    8.0833   47.6983  135.6516 C   0  0  0  0  0  0  0  0  0  0  0  0
    7.7390   46.5573  134.7409 C   0  0  0  0  0  0  0  0  0  0  0  0
   12.5510   43.9572  130.4165 C   0  0  0  0  0  0  0  0  0  0  0  0
   13.6355   44.3838  129.4722 C   0  0  0  0  0  0  0  0  0  0  0  0
   13.3733   45.4681  128.4695 N   0  0  0  0  0  0  0  0  0  0  0  0
   14.9824   43.7259  129.5306 N   0  0  0  0  0  0  0  0  0  0  0  0
   14.4579   45.8947  127.5252 H   0  0  0  0  0  0  0  0  0  0  0  0
   12.0265   46.1259  128.4111 H   0  0  0  0  0  0  0  0  0  0  0  0
   16.0670   44.1525  128.5863 H   0  0  0  0  0  0  0  0  0  0  0  0
    9.0327   47.5207  131.4932 C   0  0  0  0  0  0  0  0  0  0  0  0
    9.9178   48.5439  130.8456 O   0  0  0  0  0  0  0  0  0  0  0  0
    9.7032   46.7965  132.6229 N   0  0  0  0  0  0  0  0  0  0  0  0
    9.1114   45.7184  133.4818 H   0  0  0  0  0  0  0  0  0  0  0  0
    7.6182   47.1862  131.1225 C   0  0  0  0  0  0  0  0  0  0  0  0
    7.0815   49.6814  130.6368 C   0  0  0  0  0  0  0  0  0  0  0  0
    6.7922   49.9546  131.3276 O   0  0  0  0  0  0  0  0  0  0  0  0
    7.5917   48.3487  130.1749 N   0  0  0  0  0  0  0  0  0  0  0  0
    8.0755   48.1784  128.7652 H   0  0  0  0  0  0  0  0  0  0  0  0
    7.0550   50.8439  129.6892 C   0  0  0  0  0  0  0  0  0  0  0  0
    7.9048   50.0746  128.7217 N   0  0  0  0  0  0  0  0  0  0  0  0
    7.3048   48.9576  127.9202 C   0  0  0  0  0  0  0  0  0  0  0  0
    5.8835   48.4797  127.9605 O   0  0  0  0  0  0  0  0  0  0  0  0
    9.3612   50.2869  128.4324 H   0  0  0  0  0  0  0  0  0  0  0  0
    8.1546   48.1883  126.9527 O   0  0  0  0  0  0  0  0  0  0  0  0
    8.6753   46.8319  127.3257 C   0  0  0  0  0  0  0  0  0  0  0  0
    9.1961   45.4755  127.6987 C   0  0  0  0  0  0  0  0  0  0  0  0
   10.4694   44.9676  127.0901 C   0  0  0  0  0  0  0  0  0  0  0  0
   10.9901   43.6113  127.4631 C   0  0  0  0  0  0  0  0  0  0  0  0
   10.2374   42.7628  128.4447 C   0  0  0  0  0  0  0  0  0  0  0  0
    8.9640   43.2707  129.0534 C   0  0  0  0  0  0  0  0  0  0  0  0
    8.4434   44.6271  128.6804 C   0  0  0  0  0  0  0  0  0  0  0  0
    7.0285   52.0064  128.7416 C   0  0  0  0  0  0  0  0  0  0  0  0
    7.0020   53.1689  127.7940 C   0  0  0  0  0  0  0  0  0  0  0  0
    6.9756   54.3313  126.8464 C   0  0  0  0  0  0  0  0  0  0  0  0
    6.9491   55.4938  125.8988 N   0  0  0  0  0  0  0  0  0  0  0  0
    6.2275   56.7533  126.2769 H   0  0  0  0  0  0  0  0  0  0  0  0
    7.2171   54.3603  123.5764 N   0  0  0  0  0  0  0  0  0  0  0  0
    7.6442   55.3968  124.5732 C   0  0  0  0  0  0  0  0  0  0  0  0
    8.7663   56.3362  124.2442 N   0  0  0  0  0  0  0  0  0  0  0  0
    7.9122   54.2633  122.2508 H   0  0  0  0  0  0  0  0  0  0  0  0
    6.0844   53.5077  124.0665 H   0  0  0  0  0  0  0  0  0  0  0  0
    9.4614   56.2392  122.9185 H   0  0  0  0  0  0  0  0  0  0  0  0
    6.2038   46.8518  130.7517 C   0  0  0  0  0  0  0  0  0  0  0  0
    4.7893   46.5173  130.3810 C   0  0  0  0  0  0  0  0  0  0  0  0
    3.7400   46.4090  131.4475 C   0  0  0  0  0  0  0  0  0  0  0  0
    2.3256   46.0745  131.0767 C   0  0  0  0  0  0  0  0  0  0  0  0
    1.9604   45.8484  129.6395 C   0  0  0  0  0  0  0  0  0  0  0  0
    3.0096   45.9568  128.5731 C   0  0  0  0  0  0  0  0  0  0  0  0
    4.4241   46.2913  128.9438 C   0  0  0  0  0  0  0  0  0  0  0  0
   10.7264   48.5654  133.1923 C   0  0  0  0  0  0  0  0  0  0  0  0
   10.3352   49.9998  133.3909 C   0  0  0  0  0  0  0  0  0  0  0  0
    9.9440   51.4342  133.5894 C   0  0  0  0  0  0  0  0  0  0  0  0
    9.5528   52.8686  133.7880 N   0  0  0  0  0  0  0  0  0  0  0  0
    9.0365   53.8160  132.7460 H   0  0  0  0  0  0  0  0  0  0  0  0
    9.6617   53.4945  135.1468 C   0  0  0  0  0  0  0  0  0  0  0  0
   10.9790   54.0324  135.6213 N   0  0  0  0  0  0  0  0  0  0  0  0
    8.4533   53.5824  136.0311 N   0  0  0  0  0  0  0  0  0  0  0  0
   11.0880   54.6583  136.9802 H   0  0  0  0  0  0  0  0  0  0  0  0
   12.1874   53.9444  134.7370 H   0  0  0  0  0  0  0  0  0  0  0  0
    8.5622   54.2083  137.3899 H   0  0  0  0  0  0  0  0  0  0  0  0
 58 59  1  0  0  0
 59 60  2  0  0  0
 59 56  1  0  0  0
 56 55  1  0  0  0
 55 54  1  0  0  0
 54 53  1  0  0  0
 53 40  1  0  0  0
 40 41  1  0  0  0
 41 42  1  0  0  0
 42 43  2  0  0  0
 42 45  1  0  0  0
 45 46  1  0  0  0
 46 47  1  0  0  0
 47 48  2  0  0  0
 48 49  1  0  0  0
 49 50  2  0  0  0
 50 51  1  0  0  0
 51 52  2  0  0  0
 40 36  1  0  0  0
 36 37  2  0  0  0
 36 38  1  0  0  0
 38 35  1  0  0  0
 35 64  1  0  0  0
 64 65  1  0  0  0
 65 66  2  0  0  0
 66 67  1  0  0  0
 67 68  2  0  0  0
 68 69  1  0  0  0
 69 70  2  0  0  0
 35 31  1  0  0  0
 31 32  2  0  0  0
 31 33  1  0  0  0
 33  1  1  0  0  0
  1 71  1  0  0  0
 71 72  1  0  0  0
 72 73  1  0  0  0
 73 74  1  0  0  0
 74 76  1  0  0  0
 76 77  1  0  0  0
 76 78  2  0  0  0
  1  2  1  0  0  0
  2  3  2  0  0  0
  2  4  1  0  0  0
  4  6  1  0  0  0
  6 24  1  0  0  0
 24 25  1  0  0  0
 25 26  1  0  0  0
 25 27  2  0  0  0
  6  7  1  0  0  0
  7  8  2  0  0  0
  7  9  1  0  0  0
  9 11  1  0  0  0
 11 17  1  0  0  0
 17 18  1  0  0  0
 18 19  2  0  0  0
 19 20  1  0  0  0
 20 21  2  0  0  0
 21 22  1  0  0  0
 22 23  2  0  0  0
 11 12  1  0  0  0
 12 13  1  0  0  0
 12 14  2  0  0  0
 52 47  1  0  0  0
 70 65  1  0  0  0
 23 18  1  0  0  0
 58 61  1  0  0  0
 58 62  1  0  0  0
 60 63  1  0  0  0
 56 57  1  0  0  0
 41 44  1  0  0  0
 38 39  1  0  0  0
 33 34  1  0  0  0
 74 75  1  0  0  0
 77 79  1  0  0  0
 77 80  1  0  0  0
 78 81  1  0  0  0
  4  5  1  0  0  0
 26 28  1  0  0  0
 26 29  1  0  0  0
 27 30  1  0  0  0
  9 10  1  0  0  0
 13 15  1  0  0  0
 13 16  1  0  0  0
M  END
> <minimizedAffinity>
24.18828

> <CNNscore>
0.3071839511

> <CNNaffinity>
8.1451454163

> <CNN_VS>
2.5020580292

> <CNNaffinity_variance>
1.1163583994

$$$$
[H]N=C(N([H])[H])N([H])C([H])([H])C([H])([H])C([H])([H])[C@@]([H])(C(=O)N([H])[C@]([H])(C(=O)N([H])[C@]([H])(C(=O)N([H])[H])C([H])([H])c1c([H])c([H])c([H])c([H])c1[H])C([H])([H])C(=N[H])N([H])[H])N([H])C(=O)[C@@]([H])(N([H])C(=O)[C@@]([H])(N([H])C(=O)OC([H])([H])c1c([H])c([H])c([H])c([H])c1[H])C([H])([H])C([H])([H])C([H])([H])N([H])C(=N[H])N([H])[H])C([H])([H])c1c([H])c([H])c([H])c([H])c1[H]


 81 83  0  0  0  0  0  0  0  0999 V2000
    5.0121   47.8881  129.3454 C   0  0  0  0  0  0  0  0  0  0  0  0
    6.1422   48.7542  128.8735 C   0  0  0  0  0  0  0  0  0  0  0  0
    7.0773   48.4768  127.7339 O   0  0  0  0  0  0  0  0  0  0  0  0
    6.4307   50.0535  129.5653 N   0  0  0  0  0  0  0  0  0  0  0  0
    5.4957   50.3309  130.7049 H   0  0  0  0  0  0  0  0  0  0  0  0
    7.5608   50.9197  129.0935 C   0  0  0  0  0  0  0  0  0  0  0  0
    6.5755   51.9449  128.6159 C   0  0  0  0  0  0  0  0  0  0  0  0
    6.7177   53.2646  129.3147 O   0  0  0  0  0  0  0  0  0  0  0  0
    5.5869   51.5928  127.5440 N   0  0  0  0  0  0  0  0  0  0  0  0
    5.7226   50.1784  127.0633 H   0  0  0  0  0  0  0  0  0  0  0  0
    4.6016   52.6181  127.0665 C   0  0  0  0  0  0  0  0  0  0  0  0
    3.4713   51.7480  127.5305 C   0  0  0  0  0  0  0  0  0  0  0  0
    3.7304   50.6392  128.5068 N   0  0  0  0  0  0  0  0  0  0  0  0
    2.1535   52.1242  126.9205 O   0  0  0  0  0  0  0  0  0  0  0  0
    2.8639   49.6066  129.1651 H   0  0  0  0  0  0  0  0  0  0  0  0
    5.1708   50.5414  128.9140 H   0  0  0  0  0  0  0  0  0  0  0  0
    5.7320   53.4882  126.6024 C   0  0  0  0  0  0  0  0  0  0  0  0
    6.8623   54.3583  126.1384 C   0  0  0  0  0  0  0  0  0  0  0  0
    7.9690   53.7730  125.3123 C   0  0  0  0  0  0  0  0  0  0  0  0
    9.0993   54.6431  124.8483 C   0  0  0  0  0  0  0  0  0  0  0  0
    9.1229   56.0985  125.2104 C   0  0  0  0  0  0  0  0  0  0  0  0
    8.0162   56.6838  126.0366 C   0  0  0  0  0  0  0  0  0  0  0  0
    6.8859   55.8137  126.5006 C   0  0  0  0  0  0  0  0  0  0  0  0
    8.5461   49.8944  129.5710 C   0  0  0  0  0  0  0  0  0  0  0  0
    9.5314   48.8691  130.0486 C   0  0  0  0  0  0  0  0  0  0  0  0
    9.7669   47.6242  129.2458 N   0  0  0  0  0  0  0  0  0  0  0  0
   10.2811   49.0889  131.3291 N   0  0  0  0  0  0  0  0  0  0  0  0
   10.7521   46.5989  129.7234 H   0  0  0  0  0  0  0  0  0  0  0  0
    9.0171   47.4044  127.9653 H   0  0  0  0  0  0  0  0  0  0  0  0
   11.2664   48.0636  131.8067 H   0  0  0  0  0  0  0  0  0  0  0  0
    6.8028   46.2357  130.2473 C   0  0  0  0  0  0  0  0  0  0  0  0
    6.7574   45.7079  128.8440 O   0  0  0  0  0  0  0  0  0  0  0  0
    5.8668   47.3863  130.4713 N   0  0  0  0  0  0  0  0  0  0  0  0
    5.6602   48.1467  131.7478 H   0  0  0  0  0  0  0  0  0  0  0  0
    7.6575   45.7340  131.3732 C   0  0  0  0  0  0  0  0  0  0  0  0
    8.1854   43.4299  130.2952 C   0  0  0  0  0  0  0  0  0  0  0  0
    7.6839   42.9276  130.6581 O   0  0  0  0  0  0  0  0  0  0  0  0
    8.4457   44.9030  130.4046 N   0  0  0  0  0  0  0  0  0  0  0  0
    9.4943   45.5452  129.5455 H   0  0  0  0  0  0  0  0  0  0  0  0
    8.9736   42.5989  129.3266 C   0  0  0  0  0  0  0  0  0  0  0  0
   10.1730   43.4702  129.5550 N   0  0  0  0  0  0  0  0  0  0  0  0
   11.2212   43.0587  130.5460 C   0  0  0  0  0  0  0  0  0  0  0  0
   11.2293   41.8177  131.3886 O   0  0  0  0  0  0  0  0  0  0  0  0
   10.4812   44.7759  128.8841 H   0  0  0  0  0  0  0  0  0  0  0  0
   12.4206   43.9300  130.7744 O   0  0  0  0  0  0  0  0  0  0  0  0
   12.3875   44.9881  131.8371 C   0  0  0  0  0  0  0  0  0  0  0  0
   12.3543   46.0462  132.8999 C   0  0  0  0  0  0  0  0  0  0  0  0
   11.2772   47.0900  132.8857 C   0  0  0  0  0  0  0  0  0  0  0  0
   11.2441   48.1480  133.9484 C   0  0  0  0  0  0  0  0  0  0  0  0
   12.2881   48.1622  135.0253 C   0  0  0  0  0  0  0  0  0  0  0  0
   13.3653   47.1185  135.0395 C   0  0  0  0  0  0  0  0  0  0  0  0
   13.3984   46.0605  133.9768 C   0  0  0  0  0  0  0  0  0  0  0  0
    9.7618   41.7679  128.3580 C   0  0  0  0  0  0  0  0  0  0  0  0
   10.5500   40.9369  127.3894 C   0  0  0  0  0  0  0  0  0  0  0  0
   11.3382   40.1059  126.4208 C   0  0  0  0  0  0  0  0  0  0  0  0
   12.1264   39.2749  125.4522 N   0  0  0  0  0  0  0  0  0  0  0  0
   12.3942   39.7881  124.0684 H   0  0  0  0  0  0  0  0  0  0  0  0
   13.6909   37.8291  126.9395 N   0  0  0  0  0  0  0  0  0  0  0  0
   12.6467   37.9307  125.8674 C   0  0  0  0  0  0  0  0  0  0  0  0
   12.1229   36.6881  125.2105 N   0  0  0  0  0  0  0  0  0  0  0  0
   14.2113   36.4849  127.3546 H   0  0  0  0  0  0  0  0  0  0  0  0
   14.1007   39.1642  127.4868 H   0  0  0  0  0  0  0  0  0  0  0  0
   12.6432   35.3439  125.6257 H   0  0  0  0  0  0  0  0  0  0  0  0
    8.5122   45.2323  132.4992 C   0  0  0  0  0  0  0  0  0  0  0  0
    9.3669   44.7306  133.6251 C   0  0  0  0  0  0  0  0  0  0  0  0
   10.1150   43.4384  133.4807 C   0  0  0  0  0  0  0  0  0  0  0  0
   10.9697   42.9367  134.6066 C   0  0  0  0  0  0  0  0  0  0  0  0
   11.0763   43.7272  135.8770 C   0  0  0  0  0  0  0  0  0  0  0  0
   10.3283   45.0192  136.0215 C   0  0  0  0  0  0  0  0  0  0  0  0
    9.4735   45.5209  134.8955 C   0  0  0  0  0  0  0  0  0  0  0  0
    3.8821   47.0219  129.8173 C   0  0  0  0  0  0  0  0  0  0  0  0
    2.7520   46.1557  130.2891 C   0  0  0  0  0  0  0  0  0  0  0  0
    1.6219   45.2895  130.7610 C   0  0  0  0  0  0  0  0  0  0  0  0
    0.4918   44.4233  131.2329 N   0  0  0  0  0  0  0  0  0  0  0  0
   -0.8460   44.2484  130.5774 H   0  0  0  0  0  0  0  0  0  0  0  0
    0.6400   43.6147  132.4875 C   0  0  0  0  0  0  0  0  0  0  0  0
   -0.5017   43.5159  133.4553 N   0  0  0  0  0  0  0  0  0  0  0  0
    1.9299   42.9048  132.7743 N   0  0  0  0  0  0  0  0  0  0  0  0
   -0.3535   42.7072  134.7100 H   0  0  0  0  0  0  0  0  0  0  0  0
   -1.7916   44.2258  133.1685 H   0  0  0  0  0  0  0  0  0  0  0  0
    2.0781   42.0961  134.0289 H   0  0  0  0  0  0  0  0  0  0  0  0
 58 59  1  0  0  0
 59 60  2  0  0  0
 59 56  1  0  0  0
 56 55  1  0  0  0
 55 54  1  0  0  0
 54 53  1  0  0  0
 53 40  1  0  0  0
 40 41  1  0  0  0
 41 42  1  0  0  0
 42 43  2  0  0  0
 42 45  1  0  0  0
 45 46  1  0  0  0
 46 47  1  0  0  0
 47 48  2  0  0  0
 48 49  1  0  0  0
 49 50  2  0  0  0
 50 51  1  0  0  0
 51 52  2  0  0  0
 40 36  1  0  0  0
 36 37  2  0  0  0
 36 38  1  0  0  0
 38 35  1  0  0  0
 35 64  1  0  0  0
 64 65  1  0  0  0
 65 66  2  0  0  0
 66 67  1  0  0  0
 67 68  2  0  0  0
 68 69  1  0  0  0
 69 70  2  0  0  0
 35 31  1  0  0  0
 31 32  2  0  0  0
 31 33  1  0  0  0
 33  1  1  0  0  0
  1 71  1  0  0  0
 71 72  1  0  0  0
 72 73  1  0  0  0
 73 74  1  0  0  0
 74 76  1  0  0  0
 76 77  1  0  0  0
 76 78  2  0  0  0
  1  2  1  0  0  0
  2  3  2  0  0  0
  2  4  1  0  0  0
  4  6  1  0  0  0
  6 24  1  0  0  0
 24 25  1  0  0  0
 25 26  1  0  0  0
 25 27  2  0  0  0
  6  7  1  0  0  0
  7  8  2  0  0  0
  7  9  1  0  0  0
  9 11  1  0  0  0
 11 17  1  0  0  0
 17 18  1  0  0  0
 18 19  2  0  0  0
 19 20  1  0  0  0
 20 21  2  0  0  0
 21 22  1  0  0  0
 22 23  2  0  0  0
 11 12  1  0  0  0
 12 13  1  0  0  0
 12 14  2  0  0  0
 52 47  1  0  0  0
 70 65  1  0  0  0
 23 18  1  0  0  0
 58 61  1  0  0  0
 58 62  1  0  0  0
 60 63  1  0  0  0
 56 57  1  0  0  0
 41 44  1  0  0  0
 38 39  1  0  0  0
 33 34  1  0  0  0
 74 75  1  0  0  0
 77 79  1  0  0  0
 77 80  1  0  0  0
 78 81  1  0  0  0
  4  5  1  0  0  0
 26 28  1  0  0  0
 26 29  1  0  0  0
 27 30  1  0  0  0
  9 10  1  0  0  0
 13 15  1  0  0  0
 13 16  1  0  0  0
M  END
> <minimizedAffinity>
25.35052

> <CNNscore>
0.3010745049

> <CNNaffinity>
8.2227602005

> <CNN_VS>
2.4756634235

> <CNNaffinity_variance>
1.2508410215

$$$$
[H]c1c([H])c([H])c2c(c1[H])c1c3c(c4c5c([H])c([H])c([H])c([H])c5n5c4c1n2[C@]1([H])O[C@]5(C([H])([H])[H])[C@]([H])(OC([H])([H])[H])[C@@]([H])(N([H])C([H])([H])[H])C1([H])[H])C([H])([H])N([H])C3=O


 37 44  0  0  0  0  0  0  0  0999 V2000
    8.7990   46.8100  127.9079 C   0  0  0  0  0  0  0  0  0  0  0  0
    9.1026   48.0202  128.8509 C   0  0  0  0  0  0  0  0  0  0  0  0
    9.4817   47.3747  130.0018 C   0  0  0  0  0  0  0  0  0  0  0  0
   10.5960   46.6356  129.6161 O   0  0  0  0  0  0  0  0  0  0  0  0
   10.1310   45.2936  129.4447 C   0  0  0  0  0  0  0  0  0  0  0  0
   11.3107   44.6878  128.6453 C   0  0  0  0  0  0  0  0  0  0  0  0
    8.9297   45.4490  128.6489 C   0  0  0  0  0  0  0  0  0  0  0  0
   10.1325   44.7592  130.7905 N   0  0  0  0  0  0  0  0  0  0  0  0
   10.3303   43.4584  131.1228 C   0  0  0  0  0  0  0  0  0  0  0  0
   10.4376   42.3248  130.3692 C   0  0  0  0  0  0  0  0  0  0  0  0
   10.6351   41.0888  130.9713 C   0  0  0  0  0  0  0  0  0  0  0  0
   10.7304   40.9577  132.3603 C   0  0  0  0  0  0  0  0  0  0  0  0
   10.6225   42.0967  133.1300 C   0  0  0  0  0  0  0  0  0  0  0  0
   10.4269   43.3057  132.4978 C   0  0  0  0  0  0  0  0  0  0  0  0
   10.2827   44.5318  133.0382 C   0  0  0  0  0  0  0  0  0  0  0  0
   10.3126   45.0871  134.3266 C   0  0  0  0  0  0  0  0  0  0  0  0
   10.4999   44.3782  135.6030 C   0  0  0  0  0  0  0  0  0  0  0  0
   10.4360   45.4038  136.6124 N   0  0  0  0  0  0  0  0  0  0  0  0
   10.2348   46.6886  135.9870 C   0  0  0  0  0  0  0  0  0  0  0  0
   10.1611   47.7062  136.6932 O   0  0  0  0  0  0  0  0  0  0  0  0
   10.1637   46.4414  134.5662 C   0  0  0  0  0  0  0  0  0  0  0  0
    9.9701   47.3267  133.5149 C   0  0  0  0  0  0  0  0  0  0  0  0
    9.7434   48.6665  133.3660 C   0  0  0  0  0  0  0  0  0  0  0  0
    9.6725   49.6992  134.2421 C   0  0  0  0  0  0  0  0  0  0  0  0
    9.4194   50.9836  133.7270 C   0  0  0  0  0  0  0  0  0  0  0  0
    9.2508   51.1764  132.3739 C   0  0  0  0  0  0  0  0  0  0  0  0
    9.3260   50.1110  131.4868 C   0  0  0  0  0  0  0  0  0  0  0  0
    9.5730   48.8708  132.0116 C   0  0  0  0  0  0  0  0  0  0  0  0
    9.6869   47.7277  131.3449 N   0  0  0  0  0  0  0  0  0  0  0  0
    9.9433   46.7619  132.2666 C   0  0  0  0  0  0  0  0  0  0  0  0
   10.1029   45.3870  132.0210 C   0  0  0  0  0  0  0  0  0  0  0  0
   10.5284   45.1860  137.6301 H   0  0  0  0  0  0  0  0  0  0  0  0
    6.6571   47.7008  128.5175 C   0  0  0  0  0  0  0  0  0  0  0  0
    7.3992   46.9534  127.5545 N   0  0  0  0  0  0  0  0  0  0  0  0
    6.9804   45.9827  127.4300 H   0  0  0  0  0  0  0  0  0  0  0  0
    9.0638   44.5712  127.5328 O   0  0  0  0  0  0  0  0  0  0  0  0
    8.8063   43.2703  127.8292 C   0  0  0  0  0  0  0  0  0  0  0  0
 33 34  1  0  0  0
 34  1  1  0  0  0
  1  2  1  0  0  0
  2  3  1  0  0  0
  3  4  1  0  0  0
  4  5  1  0  0  0
  5  6  1  0  0  0
  5  7  1  0  0  0
  7 36  1  0  0  0
 36 37  1  0  0  0
  5  8  1  0  0  0
  8  9  1  0  0  0
  9 10  2  0  0  0
 10 11  1  0  0  0
 11 12  2  0  0  0
 12 13  1  0  0  0
 13 14  2  0  0  0
 14 15  1  0  0  0
 15 16  2  0  0  0
 16 17  1  0  0  0
 17 18  1  0  0  0
 18 19  1  0  0  0
 19 20  2  0  0  0
 19 21  1  0  0  0
 21 22  2  0  0  0
 22 23  1  0  0  0
 23 24  2  0  0  0
 24 25  1  0  0  0
 25 26  2  0  0  0
 26 27  1  0  0  0
 27 28  2  0  0  0
 28 29  1  0  0  0
 29 30  1  0  0  0
 30 31  2  0  0  0
  7  1  1  0  0  0
 31  8  1  0  0  0
 29  3  1  0  0  0
 14  9  1  0  0  0
 31 15  1  0  0  0
 21 16  1  0  0  0
 30 22  1  0  0  0
 28 23  1  0  0  0
 34 35  1  0  0  0
 18 32  1  0  0  0
M  END
> <minimizedAffinity>
16.78001

> <CNNscore>
0.4908484221

> <CNNaffinity>
7.6577272415

> <CNN_VS>
3.7587833405

> <CNNaffinity_variance>
0.5975378752

$$$$
[H]c1c([H])c([H])c2c(c1[H])c1c3c(c4c5c([H])c([H])c([H])c([H])c5n5c4c1n2[C@]1([H])O[C@]5(C([H])([H])[H])[C@]([H])(OC([H])([H])[H])[C@@]([H])(N([H])C([H])([H])[H])C1([H])[H])C([H])([H])N([H])C3=O


 37 44  0  0  0  0  0  0  0  0999 V2000
   11.6718   43.3569  133.8972 C   0  0  0  0  0  0  0  0  0  0  0  0
   10.7019   44.3720  134.5864 C   0  0  0  0  0  0  0  0  0  0  0  0
   10.1615   45.0086  133.4965 C   0  0  0  0  0  0  0  0  0  0  0  0
    9.5368   43.9850  132.7903 O   0  0  0  0  0  0  0  0  0  0  0  0
   10.4199   43.6625  131.7120 C   0  0  0  0  0  0  0  0  0  0  0  0
    9.8413   42.2944  131.2749 C   0  0  0  0  0  0  0  0  0  0  0  0
   11.7141   43.5495  132.3546 C   0  0  0  0  0  0  0  0  0  0  0  0
   10.1115   44.6615  130.7102 N   0  0  0  0  0  0  0  0  0  0  0  0
   10.2190   44.4925  129.3680 C   0  0  0  0  0  0  0  0  0  0  0  0
   10.7355   43.4818  128.6088 C   0  0  0  0  0  0  0  0  0  0  0  0
   10.7290   43.5618  127.2222 C   0  0  0  0  0  0  0  0  0  0  0  0
   10.1987   44.6706  126.5550 C   0  0  0  0  0  0  0  0  0  0  0  0
    9.6755   45.6968  127.3131 C   0  0  0  0  0  0  0  0  0  0  0  0
    9.6992   45.5826  128.6864 C   0  0  0  0  0  0  0  0  0  0  0  0
    9.2617   46.4532  129.6174 C   0  0  0  0  0  0  0  0  0  0  0  0
    8.6141   47.6981  129.6236 C   0  0  0  0  0  0  0  0  0  0  0  0
    8.2190   48.5075  128.4594 C   0  0  0  0  0  0  0  0  0  0  0  0
    7.6078   49.6876  129.0153 N   0  0  0  0  0  0  0  0  0  0  0  0
    7.6107   49.6029  130.4558 C   0  0  0  0  0  0  0  0  0  0  0  0
    7.1167   50.5257  131.1223 O   0  0  0  0  0  0  0  0  0  0  0  0
    8.2467   48.3498  130.7873 C   0  0  0  0  0  0  0  0  0  0  0  0
    8.5145   47.7852  132.0266 C   0  0  0  0  0  0  0  0  0  0  0  0
    8.3563   48.1346  133.3387 C   0  0  0  0  0  0  0  0  0  0  0  0
    7.7959   49.2056  133.9533 C   0  0  0  0  0  0  0  0  0  0  0  0
    7.8063   49.2378  135.3597 C   0  0  0  0  0  0  0  0  0  0  0  0
    8.3699   48.2091  136.0811 C   0  0  0  0  0  0  0  0  0  0  0  0
    8.9405   47.1175  135.4403 C   0  0  0  0  0  0  0  0  0  0  0  0
    8.9186   47.1087  134.0713 C   0  0  0  0  0  0  0  0  0  0  0  0
    9.4016   46.1668  133.2691 N   0  0  0  0  0  0  0  0  0  0  0  0
    9.1483   46.5705  131.9959 C   0  0  0  0  0  0  0  0  0  0  0  0
    9.5145   45.9033  130.8141 C   0  0  0  0  0  0  0  0  0  0  0  0
    7.2366   50.4557  128.4121 H   0  0  0  0  0  0  0  0  0  0  0  0
   13.2841   45.0954  134.2593 C   0  0  0  0  0  0  0  0  0  0  0  0
   12.9905   43.7051  134.3918 N   0  0  0  0  0  0  0  0  0  0  0  0
   13.7120   43.1189  133.8734 H   0  0  0  0  0  0  0  0  0  0  0  0
   12.2552   42.2895  131.9625 O   0  0  0  0  0  0  0  0  0  0  0  0
   11.4796   41.2306  132.3140 C   0  0  0  0  0  0  0  0  0  0  0  0
 33 34  1  0  0  0
 34  1  1  0  0  0
  1  2  1  0  0  0
  2  3  1  0  0  0
  3  4  1  0  0  0
  4  5  1  0  0  0
  5  6  1  0  0  0
  5  7  1  0  0  0
  7 36  1  0  0  0
 36 37  1  0  0  0
  5  8  1  0  0  0
  8  9  1  0  0  0
  9 10  2  0  0  0
 10 11  1  0  0  0
 11 12  2  0  0  0
 12 13  1  0  0  0
 13 14  2  0  0  0
 14 15  1  0  0  0
 15 16  2  0  0  0
 16 17  1  0  0  0
 17 18  1  0  0  0
 18 19  1  0  0  0
 19 20  2  0  0  0
 19 21  1  0  0  0
 21 22  2  0  0  0
 22 23  1  0  0  0
 23 24  2  0  0  0
 24 25  1  0  0  0
 25 26  2  0  0  0
 26 27  1  0  0  0
 27 28  2  0  0  0
 28 29  1  0  0  0
 29 30  1  0  0  0
 30 31  2  0  0  0
  7  1  1  0  0  0
 31  8  1  0  0  0
 29  3  1  0  0  0
 14  9  1  0  0  0
 31 15  1  0  0  0
 21 16  1  0  0  0
 30 22  1  0  0  0
 28 23  1  0  0  0
 34 35  1  0  0  0
 18 32  1  0  0  0
M  END
> <minimizedAffinity>
8.48516

> <CNNscore>
0.4841501117

> <CNNaffinity>
7.8003549576

> <CNN_VS>
3.7765426636

> <CNNaffinity_variance>
0.5672309399

$$$$
[H]c1c([H])c([H])c2c(c1[H])c1c3c(c4c5c([H])c([H])c([H])c([H])c5n5c4c1n2[C@]1([H])O[C@]5(C([H])([H])[H])[C@]([H])(OC([H])([H])[H])[C@@]([H])(N([H])C([H])([H])[H])C1([H])[H])C([H])([H])N([H])C3=O


 37 44  0  0  0  0  0  0  0  0999 V2000
   12.2730   45.4315  134.3466 C   0  0  0  0  0  0  0  0  0  0  0  0
   11.5692   46.8211  134.4874 C   0  0  0  0  0  0  0  0  0  0  0  0
   10.7796   46.8367  133.3643 C   0  0  0  0  0  0  0  0  0  0  0  0
    9.9452   45.7353  133.5300 O   0  0  0  0  0  0  0  0  0  0  0  0
   10.4882   44.7081  132.6953 C   0  0  0  0  0  0  0  0  0  0  0  0
    9.7571   43.4678  133.2651 C   0  0  0  0  0  0  0  0  0  0  0  0
   11.9026   44.7253  133.0116 C   0  0  0  0  0  0  0  0  0  0  0  0
    9.9604   45.0219  131.3839 N   0  0  0  0  0  0  0  0  0  0  0  0
    9.6923   44.1211  130.4050 C   0  0  0  0  0  0  0  0  0  0  0  0
    9.9412   42.7829  130.2961 C   0  0  0  0  0  0  0  0  0  0  0  0
    9.5616   42.0811  129.1592 C   0  0  0  0  0  0  0  0  0  0  0  0
    8.9158   42.7115  128.0909 C   0  0  0  0  0  0  0  0  0  0  0  0
    8.6608   44.0630  128.1912 C   0  0  0  0  0  0  0  0  0  0  0  0
    9.0519   44.7264  129.3342 C   0  0  0  0  0  0  0  0  0  0  0  0
    8.9198   46.0311  129.6447 C   0  0  0  0  0  0  0  0  0  0  0  0
    8.3497   47.1671  129.0500 C   0  0  0  0  0  0  0  0  0  0  0  0
    7.6867   47.2538  127.7386 C   0  0  0  0  0  0  0  0  0  0  0  0
    7.2984   48.6348  127.6073 N   0  0  0  0  0  0  0  0  0  0  0  0
    7.6890   49.3634  128.7900 C   0  0  0  0  0  0  0  0  0  0  0  0
    7.4329   50.5747  128.8729 O   0  0  0  0  0  0  0  0  0  0  0  0
    8.3393   48.4099  129.6576 C   0  0  0  0  0  0  0  0  0  0  0  0
    8.9104   48.5875  130.9101 C   0  0  0  0  0  0  0  0  0  0  0  0
    9.1290   49.6275  131.7699 C   0  0  0  0  0  0  0  0  0  0  0  0
    8.8010   50.9429  131.7385 C   0  0  0  0  0  0  0  0  0  0  0  0
    9.1943   51.7459  132.8245 C   0  0  0  0  0  0  0  0  0  0  0  0
    9.8901   51.2040  133.8822 C   0  0  0  0  0  0  0  0  0  0  0  0
   10.2200   49.8555  133.9030 C   0  0  0  0  0  0  0  0  0  0  0  0
    9.8267   49.0944  132.8350 C   0  0  0  0  0  0  0  0  0  0  0  0
   10.0346   47.7945  132.6586 N   0  0  0  0  0  0  0  0  0  0  0  0
    9.4617   47.4651  131.4706 C   0  0  0  0  0  0  0  0  0  0  0  0
    9.4655   46.1999  130.8580 C   0  0  0  0  0  0  0  0  0  0  0  0
    6.8091   48.9942  126.7570 H   0  0  0  0  0  0  0  0  0  0  0  0
   14.0406   46.9235  134.9811 C   0  0  0  0  0  0  0  0  0  0  0  0
   13.6897   45.7358  134.2720 N   0  0  0  0  0  0  0  0  0  0  0  0
   13.9649   45.8165  133.2469 H   0  0  0  0  0  0  0  0  0  0  0  0
   12.2648   43.3836  133.3324 O   0  0  0  0  0  0  0  0  0  0  0  0
   12.6307   42.6452  132.2519 C   0  0  0  0  0  0  0  0  0  0  0  0
 33 34  1  0  0  0
 34  1  1  0  0  0
  1  2  1  0  0  0
  2  3  1  0  0  0
  3  4  1  0  0  0
  4  5  1  0  0  0
  5  6  1  0  0  0
  5  7  1  0  0  0
  7 36  1  0  0  0
 36 37  1  0  0  0
  5  8  1  0  0  0
  8  9  1  0  0  0
  9 10  2  0  0  0
 10 11  1  0  0  0
 11 12  2  0  0  0
 12 13  1  0  0  0
 13 14  2  0  0  0
 14 15  1  0  0  0
 15 16  2  0  0  0
 16 17  1  0  0  0
 17 18  1  0  0  0
 18 19  1  0  0  0
 19 20  2  0  0  0
 19 21  1  0  0  0
 21 22  2  0  0  0
 22 23  1  0  0  0
 23 24  2  0  0  0
 24 25  1  0  0  0
 25 26  2  0  0  0
 26 27  1  0  0  0
 27 28  2  0  0  0
 28 29  1  0  0  0
 29 30  1  0  0  0
 30 31  2  0  0  0
  7  1  1  0  0  0
 31  8  1  0  0  0
 29  3  1  0  0  0
 14  9  1  0  0  0
 31 15  1  0  0  0
 21 16  1  0  0  0
 30 22  1  0  0  0
 28 23  1  0  0  0
 34 35  1  0  0  0
 18 32  1  0  0  0
M  END
> <minimizedAffinity>
10.85321

> <CNNscore>
0.4422019124

> <CNNaffinity>
7.5652685165

> <CNN_VS>
3.3453762531

> <CNNaffinity_variance>
0.2730583251

$$$$
[H]c1c([H])c([H])c2c(c1[H])c1c3c(c4c5c([H])c([H])c([H])c([H])c5n5c4c1n2[C@]1([H])O[C@]5(C([H])([H])[H])[C@]([H])(OC([H])([H])[H])[C@@]([H])(N([H])C([H])([H])[H])C1([H])[H])C([H])([H])N([H])C3=O


 37 44  0  0  0  0  0  0  0  0999 V2000
    8.2612   47.6644  128.6556 C   0  0  0  0  0  0  0  0  0  0  0  0
    9.5173   46.8000  128.3073 C   0  0  0  0  0  0  0  0  0  0  0  0
    9.7433   46.1621  129.5018 C   0  0  0  0  0  0  0  0  0  0  0  0
    8.5738   45.4395  129.7186 O   0  0  0  0  0  0  0  0  0  0  0  0
    7.8237   46.1934  130.6756 C   0  0  0  0  0  0  0  0  0  0  0  0
    6.4300   45.5368  130.5200 C   0  0  0  0  0  0  0  0  0  0  0  0
    7.8724   47.5458  130.1567 C   0  0  0  0  0  0  0  0  0  0  0  0
    8.4038   45.8045  131.9441 N   0  0  0  0  0  0  0  0  0  0  0  0
    7.7485   45.7631  133.1318 C   0  0  0  0  0  0  0  0  0  0  0  0
    6.4997   46.1693  133.5055 C   0  0  0  0  0  0  0  0  0  0  0  0
    6.0665   46.0161  134.8162 C   0  0  0  0  0  0  0  0  0  0  0  0
    6.8850   45.4454  135.7961 C   0  0  0  0  0  0  0  0  0  0  0  0
    8.1485   45.0327  135.4285 C   0  0  0  0  0  0  0  0  0  0  0  0
    8.5438   45.2007  134.1189 C   0  0  0  0  0  0  0  0  0  0  0  0
    9.7207   44.8878  133.5416 C   0  0  0  0  0  0  0  0  0  0  0  0
   10.9195   44.2762  133.9388 C   0  0  0  0  0  0  0  0  0  0  0  0
   11.2696   43.7790  135.2794 C   0  0  0  0  0  0  0  0  0  0  0  0
   12.6073   43.2610  135.1478 N   0  0  0  0  0  0  0  0  0  0  0  0
   13.0560   43.4164  133.7852 C   0  0  0  0  0  0  0  0  0  0  0  0
   14.1880   43.0203  133.4666 O   0  0  0  0  0  0  0  0  0  0  0  0
   11.9739   44.0525  133.0717 C   0  0  0  0  0  0  0  0  0  0  0  0
   11.8867   44.4374  131.7410 C   0  0  0  0  0  0  0  0  0  0  0  0
   12.7015   44.4299  130.6434 C   0  0  0  0  0  0  0  0  0  0  0  0
   13.9563   43.9658  130.4218 C   0  0  0  0  0  0  0  0  0  0  0  0
   14.5006   44.1280  129.1347 C   0  0  0  0  0  0  0  0  0  0  0  0
   13.7741   44.7396  128.1375 C   0  0  0  0  0  0  0  0  0  0  0  0
   12.4900   45.2104  128.3767 C   0  0  0  0  0  0  0  0  0  0  0  0
   11.9819   45.0414  129.6368 C   0  0  0  0  0  0  0  0  0  0  0  0
   10.7831   45.4116  130.0727 N   0  0  0  0  0  0  0  0  0  0  0  0
   10.7077   45.0334  131.3763 C   0  0  0  0  0  0  0  0  0  0  0  0
    9.6324   45.2537  132.2544 C   0  0  0  0  0  0  0  0  0  0  0  0
   13.1229   42.8468  135.9565 H   0  0  0  0  0  0  0  0  0  0  0  0
    8.9760   49.7194  129.6653 C   0  0  0  0  0  0  0  0  0  0  0  0
    8.6824   49.0370  128.4468 N   0  0  0  0  0  0  0  0  0  0  0  0
    7.9197   49.5465  127.9065 H   0  0  0  0  0  0  0  0  0  0  0  0
    6.5249   48.0097  130.1009 O   0  0  0  0  0  0  0  0  0  0  0  0
    5.9342   47.8227  128.8915 C   0  0  0  0  0  0  0  0  0  0  0  0
 33 34  1  0  0  0
 34  1  1  0  0  0
  1  2  1  0  0  0
  2  3  1  0  0  0
  3  4  1  0  0  0
  4  5  1  0  0  0
  5  6  1  0  0  0
  5  7  1  0  0  0
  7 36  1  0  0  0
 36 37  1  0  0  0
  5  8  1  0  0  0
  8  9  1  0  0  0
  9 10  2  0  0  0
 10 11  1  0  0  0
 11 12  2  0  0  0
 12 13  1  0  0  0
 13 14  2  0  0  0
 14 15  1  0  0  0
 15 16  2  0  0  0
 16 17  1  0  0  0
 17 18  1  0  0  0
 18 19  1  0  0  0
 19 20  2  0  0  0
 19 21  1  0  0  0
 21 22  2  0  0  0
 22 23  1  0  0  0
 23 24  2  0  0  0
 24 25  1  0  0  0
 25 26  2  0  0  0
 26 27  1  0  0  0
 27 28  2  0  0  0
 28 29  1  0  0  0
 29 30  1  0  0  0
 30 31  2  0  0  0
  7  1  1  0  0  0
 31  8  1  0  0  0
 29  3  1  0  0  0
 14  9  1  0  0  0
 31 15  1  0  0  0
 21 16  1  0  0  0
 30 22  1  0  0  0
 28 23  1  0  0  0
 34 35  1  0  0  0
 18 32  1  0  0  0
M  END
> <minimizedAffinity>
25.42194

> <CNNscore>
0.4294581413

> <CNNaffinity>
7.3699522018

> <CNN_VS>
3.1650860310

> <CNNaffinity_variance>
0.8784612417

$$$$
[H]c1c([H])c([H])c2c(c1[H])c1c3c(c4c5c([H])c([H])c([H])c([H])c5n5c4c1n2[C@]1([H])O[C@]5(C([H])([H])[H])[C@]([H])(OC([H])([H])[H])[C@@]([H])(N([H])C([H])([H])[H])C1([H])[H])C([H])([H])N([H])C3=O


 37 44  0  0  0  0  0  0  0  0999 V2000
    9.0222   49.4334  130.0976 C   0  0  0  0  0  0  0  0  0  0  0  0
    8.8998   48.1712  129.1821 C   0  0  0  0  0  0  0  0  0  0  0  0
    9.0776   47.1604  130.0941 C   0  0  0  0  0  0  0  0  0  0  0  0
    8.0312   47.3378  130.9944 O   0  0  0  0  0  0  0  0  0  0  0  0
    8.6061   47.9812  132.1355 C   0  0  0  0  0  0  0  0  0  0  0  0
    7.3266   48.4816  132.8498 C   0  0  0  0  0  0  0  0  0  0  0  0
    9.3898   49.0565  131.5608 C   0  0  0  0  0  0  0  0  0  0  0  0
    9.1841   46.8867  132.8871 N   0  0  0  0  0  0  0  0  0  0  0  0
    9.3303   46.8459  134.2356 C   0  0  0  0  0  0  0  0  0  0  0  0
    9.1337   47.7833  135.2088 C   0  0  0  0  0  0  0  0  0  0  0  0
    9.3692   47.4802  136.5436 C   0  0  0  0  0  0  0  0  0  0  0  0
    9.8134   46.2148  136.9399 C   0  0  0  0  0  0  0  0  0  0  0  0
   10.0156   45.2615  135.9643 C   0  0  0  0  0  0  0  0  0  0  0  0
    9.7715   45.5983  134.6503 C   0  0  0  0  0  0  0  0  0  0  0  0
    9.9090   44.8441  133.5419 C   0  0  0  0  0  0  0  0  0  0  0  0
   10.2678   43.5195  133.2491 C   0  0  0  0  0  0  0  0  0  0  0  0
   10.6775   42.4721  134.1989 C   0  0  0  0  0  0  0  0  0  0  0  0
   10.9455   41.3142  133.3848 N   0  0  0  0  0  0  0  0  0  0  0  0
   10.6970   41.6276  131.9984 C   0  0  0  0  0  0  0  0  0  0  0  0
   10.8637   40.7517  131.1354 O   0  0  0  0  0  0  0  0  0  0  0  0
   10.2787   43.0091  131.9634 C   0  0  0  0  0  0  0  0  0  0  0  0
    9.9297   43.8089  130.8840 C   0  0  0  0  0  0  0  0  0  0  0  0
    9.8712   43.6818  129.5242 C   0  0  0  0  0  0  0  0  0  0  0  0
   10.0955   42.6462  128.6779 C   0  0  0  0  0  0  0  0  0  0  0  0
    9.9353   42.8758  127.2993 C   0  0  0  0  0  0  0  0  0  0  0  0
    9.5617   44.1166  126.8332 C   0  0  0  0  0  0  0  0  0  0  0  0
    9.3346   45.1692  127.7098 C   0  0  0  0  0  0  0  0  0  0  0  0
    9.4970   44.9216  129.0465 C   0  0  0  0  0  0  0  0  0  0  0  0
    9.3278   45.7800  130.0459 N   0  0  0  0  0  0  0  0  0  0  0  0
    9.5843   45.0984  131.1938 C   0  0  0  0  0  0  0  0  0  0  0  0
    9.5647   45.6158  132.5006 C   0  0  0  0  0  0  0  0  0  0  0  0
   11.2694   40.4104  133.7968 H   0  0  0  0  0  0  0  0  0  0  0  0
   11.4023   49.5302  129.8165 C   0  0  0  0  0  0  0  0  0  0  0  0
   10.1525   50.1721  129.5666 N   0  0  0  0  0  0  0  0  0  0  0  0
   10.1437   51.1508  129.9850 H   0  0  0  0  0  0  0  0  0  0  0  0
    8.9950   50.2518  132.2312 O   0  0  0  0  0  0  0  0  0  0  0  0
    9.8900   50.6752  133.1619 C   0  0  0  0  0  0  0  0  0  0  0  0
 33 34  1  0  0  0
 34  1  1  0  0  0
  1  2  1  0  0  0
  2  3  1  0  0  0
  3  4  1  0  0  0
  4  5  1  0  0  0
  5  6  1  0  0  0
  5  7  1  0  0  0
  7 36  1  0  0  0
 36 37  1  0  0  0
  5  8  1  0  0  0
  8  9  1  0  0  0
  9 10  2  0  0  0
 10 11  1  0  0  0
 11 12  2  0  0  0
 12 13  1  0  0  0
 13 14  2  0  0  0
 14 15  1  0  0  0
 15 16  2  0  0  0
 16 17  1  0  0  0
 17 18  1  0  0  0
 18 19  1  0  0  0
 19 20  2  0  0  0
 19 21  1  0  0  0
 21 22  2  0  0  0
 22 23  1  0  0  0
 23 24  2  0  0  0
 24 25  1  0  0  0
 25 26  2  0  0  0
 26 27  1  0  0  0
 27 28  2  0  0  0
 28 29  1  0  0  0
 29 30  1  0  0  0
 30 31  2  0  0  0
  7  1  1  0  0  0
 31  8  1  0  0  0
 29  3  1  0  0  0
 14  9  1  0  0  0
 31 15  1  0  0  0
 21 16  1  0  0  0
 30 22  1  0  0  0
 28 23  1  0  0  0
 34 35  1  0  0  0
 18 32  1  0  0  0
M  END
> <minimizedAffinity>
17.81905

> <CNNscore>
0.4235508740

> <CNNaffinity>
7.5762228966

> <CNN_VS>
3.2089157104

> <CNNaffinity_variance>
1.1469447613

$$$$
[H]c1c([H])c([H])c2c(c1[H])c1c3c(c4c5c([H])c([H])c([H])c([H])c5n5c4c1n2[C@]1([H])O[C@]5(C([H])([H])[H])[C@]([H])(OC([H])([H])[H])[C@@]([H])(N([H])C([H])([H])[H])C1([H])[H])C([H])([H])N([H])C3=O


 37 44  0  0  0  0  0  0  0  0999 V2000
    8.9335   47.1260  135.2301 C   0  0  0  0  0  0  0  0  0  0  0  0
    8.3075   47.9571  134.0623 C   0  0  0  0  0  0  0  0  0  0  0  0
    8.5955   47.1602  132.9820 C   0  0  0  0  0  0  0  0  0  0  0  0
    7.9433   45.9645  133.2684 O   0  0  0  0  0  0  0  0  0  0  0  0
    8.9576   45.0728  133.7404 C   0  0  0  0  0  0  0  0  0  0  0  0
    8.0836   43.9742  134.3937 C   0  0  0  0  0  0  0  0  0  0  0  0
    9.6847   45.8676  134.7101 C   0  0  0  0  0  0  0  0  0  0  0  0
    9.5517   44.5598  132.5236 N   0  0  0  0  0  0  0  0  0  0  0  0
   10.1173   43.3349  132.3772 C   0  0  0  0  0  0  0  0  0  0  0  0
   10.4095   42.3461  133.2723 C   0  0  0  0  0  0  0  0  0  0  0  0
   11.0089   41.1650  132.8541 C   0  0  0  0  0  0  0  0  0  0  0  0
   11.3343   40.9442  131.5120 C   0  0  0  0  0  0  0  0  0  0  0  0
   11.0438   41.9373  130.6004 C   0  0  0  0  0  0  0  0  0  0  0  0
   10.4489   43.0957  131.0520 C   0  0  0  0  0  0  0  0  0  0  0  0
   10.0892   44.1916  130.3552 C   0  0  0  0  0  0  0  0  0  0  0  0
   10.1019   44.5937  129.0108 C   0  0  0  0  0  0  0  0  0  0  0  0
   10.6116   43.8377  127.8551 C   0  0  0  0  0  0  0  0  0  0  0  0
   10.3997   44.7010  126.7216 N   0  0  0  0  0  0  0  0  0  0  0  0
    9.7733   45.9265  127.1552 C   0  0  0  0  0  0  0  0  0  0  0  0
    9.4994   46.8011  126.3186 O   0  0  0  0  0  0  0  0  0  0  0  0
    9.6087   45.8140  128.5853 C   0  0  0  0  0  0  0  0  0  0  0  0
    9.0713   46.7138  129.4953 C   0  0  0  0  0  0  0  0  0  0  0  0
    8.5550   47.9791  129.4630 C   0  0  0  0  0  0  0  0  0  0  0  0
    8.3129   48.8577  128.4590 C   0  0  0  0  0  0  0  0  0  0  0  0
    7.7568   50.1054  128.7955 C   0  0  0  0  0  0  0  0  0  0  0  0
    7.4703   50.4155  130.1062 C   0  0  0  0  0  0  0  0  0  0  0  0
    7.7226   49.5072  131.1256 C   0  0  0  0  0  0  0  0  0  0  0  0
    8.2641   48.2999  130.7736 C   0  0  0  0  0  0  0  0  0  0  0  0
    8.5767   47.2958  131.5849 N   0  0  0  0  0  0  0  0  0  0  0  0
    9.0705   46.3003  130.8019 C   0  0  0  0  0  0  0  0  0  0  0  0
    9.5636   45.0571  131.2345 C   0  0  0  0  0  0  0  0  0  0  0  0
   10.6800   44.4238  125.7540 H   0  0  0  0  0  0  0  0  0  0  0  0
   11.0860   48.1530  134.9750 C   0  0  0  0  0  0  0  0  0  0  0  0
    9.9396   47.9956  135.8103 N   0  0  0  0  0  0  0  0  0  0  0  0
   10.2189   47.6036  136.7597 H   0  0  0  0  0  0  0  0  0  0  0  0
    9.7385   45.0980  135.9097 O   0  0  0  0  0  0  0  0  0  0  0  0
   10.8681   44.3518  136.0277 C   0  0  0  0  0  0  0  0  0  0  0  0
 33 34  1  0  0  0
 34  1  1  0  0  0
  1  2  1  0  0  0
  2  3  1  0  0  0
  3  4  1  0  0  0
  4  5  1  0  0  0
  5  6  1  0  0  0
  5  7  1  0  0  0
  7 36  1  0  0  0
 36 37  1  0  0  0
  5  8  1  0  0  0
  8  9  1  0  0  0
  9 10  2  0  0  0
 10 11  1  0  0  0
 11 12  2  0  0  0
 12 13  1  0  0  0
 13 14  2  0  0  0
 14 15  1  0  0  0
 15 16  2  0  0  0
 16 17  1  0  0  0
 17 18  1  0  0  0
 18 19  1  0  0  0
 19 20  2  0  0  0
 19 21  1  0  0  0
 21 22  2  0  0  0
 22 23  1  0  0  0
 23 24  2  0  0  0
 24 25  1  0  0  0
 25 26  2  0  0  0
 26 27  1  0  0  0
 27 28  2  0  0  0
 28 29  1  0  0  0
 29 30  1  0  0  0
 30 31  2  0  0  0
  7  1  1  0  0  0
 31  8  1  0  0  0
 29  3  1  0  0  0
 14  9  1  0  0  0
 31 15  1  0  0  0
 21 16  1  0  0  0
 30 22  1  0  0  0
 28 23  1  0  0  0
 34 35  1  0  0  0
 18 32  1  0  0  0
M  END
> <minimizedAffinity>
15.18057

> <CNNscore>
0.3877100348

> <CNNaffinity>
7.4774246216

> <CNN_VS>
2.8990726471

> <CNNaffinity_variance>
0.4956170619

$$$$
[H]c1c([H])c([H])c2c(c1[H])c1c3c(c4c5c([H])c([H])c([H])c([H])c5n5c4c1n2[C@]1([H])O[C@]5(C([H])([H])[H])[C@]([H])(OC([H])([H])[H])[C@@]([H])(N([H])C([H])([H])[H])C1([H])[H])C([H])([H])N([H])C3=O


 37 44  0  0  0  0  0  0  0  0999 V2000
    7.6916   43.3653  130.0437 C   0  0  0  0  0  0  0  0  0  0  0  0
    7.4013   44.3874  131.1914 C   0  0  0  0  0  0  0  0  0  0  0  0
    8.6620   44.8660  131.4494 C   0  0  0  0  0  0  0  0  0  0  0  0
    9.0549   45.4342  130.2413 O   0  0  0  0  0  0  0  0  0  0  0  0
    9.9318   44.4822  129.6319 C   0  0  0  0  0  0  0  0  0  0  0  0
    9.9610   45.0173  128.1791 C   0  0  0  0  0  0  0  0  0  0  0  0
    9.2143   43.2293  129.7583 C   0  0  0  0  0  0  0  0  0  0  0  0
   11.2068   44.7388  130.2686 N   0  0  0  0  0  0  0  0  0  0  0  0
   12.4248   44.5462  129.7019 C   0  0  0  0  0  0  0  0  0  0  0  0
   12.8084   43.9723  128.5237 C   0  0  0  0  0  0  0  0  0  0  0  0
   14.1510   43.8934  128.1772 C   0  0  0  0  0  0  0  0  0  0  0  0
   15.1539   44.3935  129.0138 C   0  0  0  0  0  0  0  0  0  0  0  0
   14.7765   44.9742  130.2063 C   0  0  0  0  0  0  0  0  0  0  0  0
   13.4350   45.0347  130.5166 C   0  0  0  0  0  0  0  0  0  0  0  0
   12.8409   45.5389  131.6162 C   0  0  0  0  0  0  0  0  0  0  0  0
   13.2519   46.1994  132.7840 C   0  0  0  0  0  0  0  0  0  0  0  0
   14.6282   46.5303  133.1882 C   0  0  0  0  0  0  0  0  0  0  0  0
   14.4949   47.1880  134.4629 N   0  0  0  0  0  0  0  0  0  0  0  0
   13.0998   47.2737  134.8213 C   0  0  0  0  0  0  0  0  0  0  0  0
   12.7761   47.8183  135.8883 O   0  0  0  0  0  0  0  0  0  0  0  0
   12.3659   46.6456  133.7481 C   0  0  0  0  0  0  0  0  0  0  0  0
   11.0003   46.4492  133.5962 C   0  0  0  0  0  0  0  0  0  0  0  0
    9.8690   46.6925  134.3238 C   0  0  0  0  0  0  0  0  0  0  0  0
    9.6437   47.3019  135.5141 C   0  0  0  0  0  0  0  0  0  0  0  0
    8.3164   47.3794  135.9736 C   0  0  0  0  0  0  0  0  0  0  0  0
    7.2846   46.8503  135.2307 C   0  0  0  0  0  0  0  0  0  0  0  0
    7.5278   46.2288  134.0132 C   0  0  0  0  0  0  0  0  0  0  0  0
    8.8275   46.1655  133.5871 C   0  0  0  0  0  0  0  0  0  0  0  0
    9.2748   45.6231  132.4602 N   0  0  0  0  0  0  0  0  0  0  0  0
   10.6225   45.8013  132.4492 C   0  0  0  0  0  0  0  0  0  0  0  0
   11.5212   45.3548  131.4648 C   0  0  0  0  0  0  0  0  0  0  0  0
   15.3238   47.5294  134.9994 H   0  0  0  0  0  0  0  0  0  0  0  0
    7.8693   41.7514  131.8092 C   0  0  0  0  0  0  0  0  0  0  0  0
    7.2545   42.0838  130.5649 N   0  0  0  0  0  0  0  0  0  0  0  0
    7.4563   41.3352  129.8356 H   0  0  0  0  0  0  0  0  0  0  0  0
    9.1713   42.6509  128.4554 O   0  0  0  0  0  0  0  0  0  0  0  0
   10.2444   41.8668  128.1720 C   0  0  0  0  0  0  0  0  0  0  0  0
 33 34  1  0  0  0
 34  1  1  0  0  0
  1  2  1  0  0  0
  2  3  1  0  0  0
  3  4  1  0  0  0
  4  5  1  0  0  0
  5  6  1  0  0  0
  5  7  1  0  0  0
  7 36  1  0  0  0
 36 37  1  0  0  0
  5  8  1  0  0  0
  8  9  1  0  0  0
  9 10  2  0  0  0
 10 11  1  0  0  0
 11 12  2  0  0  0
 12 13  1  0  0  0
 13 14  2  0  0  0
 14 15  1  0  0  0
 15 16  2  0  0  0
 16 17  1  0  0  0
 17 18  1  0  0  0
 18 19  1  0  0  0
 19 20  2  0  0  0
 19 21  1  0  0  0
 21 22  2  0  0  0
 22 23  1  0  0  0
 23 24  2  0  0  0
 24 25  1  0  0  0
 25 26  2  0  0  0
 26 27  1  0  0  0
 27 28  2  0  0  0
 28 29  1  0  0  0
 29 30  1  0  0  0
 30 31  2  0  0  0
  7  1  1  0  0  0
 31  8  1  0  0  0
 29  3  1  0  0  0
 14  9  1  0  0  0
 31 15  1  0  0  0
 21 16  1  0  0  0
 30 22  1  0  0  0
 28 23  1  0  0  0
 34 35  1  0  0  0
 18 32  1  0  0  0
M  END
> <minimizedAffinity>
33.63523

> <CNNscore>
0.3806048334

> <CNNaffinity>
6.9904379845

> <CNN_VS>
2.6605944633

> <CNNaffinity_variance>
0.7819284201

$$$$
[H]c1c([H])c([H])c2c(c1[H])c1c3c(c4c5c([H])c([H])c([H])c([H])c5n5c4c1n2[C@]1([H])O[C@]5(C([H])([H])[H])[C@]([H])(OC([H])([H])[H])[C@@]([H])(N([H])C([H])([H])[H])C1([H])[H])C([H])([H])N([H])C3=O


 37 44  0  0  0  0  0  0  0  0999 V2000
    7.6712   44.7352  128.1596 C   0  0  0  0  0  0  0  0  0  0  0  0
    8.2571   43.5761  129.0310 C   0  0  0  0  0  0  0  0  0  0  0  0
    8.8382   44.2795  130.0569 C   0  0  0  0  0  0  0  0  0  0  0  0
    7.7739   44.9676  130.6321 O   0  0  0  0  0  0  0  0  0  0  0  0
    7.8674   46.3078  130.1404 C   0  0  0  0  0  0  0  0  0  0  0  0
    6.4565   46.8366  130.4971 C   0  0  0  0  0  0  0  0  0  0  0  0
    8.0622   46.1342  128.7147 C   0  0  0  0  0  0  0  0  0  0  0  0
    8.8491   46.9209  131.0106 N   0  0  0  0  0  0  0  0  0  0  0  0
    8.8916   48.2341  131.3505 C   0  0  0  0  0  0  0  0  0  0  0  0
    8.1845   49.3180  130.9152 C   0  0  0  0  0  0  0  0  0  0  0  0
    8.4346   50.5825  131.4326 C   0  0  0  0  0  0  0  0  0  0  0  0
    9.4119   50.7935  132.4104 C   0  0  0  0  0  0  0  0  0  0  0  0
   10.1319   49.7051  132.8558 C   0  0  0  0  0  0  0  0  0  0  0  0
    9.8562   48.4657  132.3196 C   0  0  0  0  0  0  0  0  0  0  0  0
   10.4323   47.2777  132.5894 C   0  0  0  0  0  0  0  0  0  0  0  0
   11.4180   46.7993  133.4661 C   0  0  0  0  0  0  0  0  0  0  0  0
   12.2152   47.5780  134.4278 C   0  0  0  0  0  0  0  0  0  0  0  0
   13.0804   46.6159  135.0609 N   0  0  0  0  0  0  0  0  0  0  0  0
   12.8180   45.3015  134.5265 C   0  0  0  0  0  0  0  0  0  0  0  0
   13.4605   44.3296  134.9537 O   0  0  0  0  0  0  0  0  0  0  0  0
   11.7781   45.4655  133.5383 C   0  0  0  0  0  0  0  0  0  0  0  0
   11.1654   44.5243  132.7228 C   0  0  0  0  0  0  0  0  0  0  0  0
   11.2825   43.1838  132.4819 C   0  0  0  0  0  0  0  0  0  0  0  0
   12.0521   42.2070  133.0226 C   0  0  0  0  0  0  0  0  0  0  0  0
   11.9068   40.9007  132.5210 C   0  0  0  0  0  0  0  0  0  0  0  0
   11.0083   40.6320  131.5127 C   0  0  0  0  0  0  0  0  0  0  0  0
   10.2256   41.6407  130.9672 C   0  0  0  0  0  0  0  0  0  0  0  0
   10.3848   42.9037  131.4714 C   0  0  0  0  0  0  0  0  0  0  0  0
    9.7383   44.0021  131.0978 N   0  0  0  0  0  0  0  0  0  0  0  0
   10.2073   45.0145  131.8744 C   0  0  0  0  0  0  0  0  0  0  0  0
    9.8345   46.3682  131.8060 C   0  0  0  0  0  0  0  0  0  0  0  0
   13.7743   46.8916  135.7918 H   0  0  0  0  0  0  0  0  0  0  0  0
    9.6713   44.1329  126.9806 C   0  0  0  0  0  0  0  0  0  0  0  0
    8.3287   44.6045  126.8728 N   0  0  0  0  0  0  0  0  0  0  0  0
    8.3015   45.5484  126.3816 H   0  0  0  0  0  0  0  0  0  0  0  0
    7.0797   46.9408  128.0680 O   0  0  0  0  0  0  0  0  0  0  0  0
    7.4058   48.2589  128.0156 C   0  0  0  0  0  0  0  0  0  0  0  0
 33 34  1  0  0  0
 34  1  1  0  0  0
  1  2  1  0  0  0
  2  3  1  0  0  0
  3  4  1  0  0  0
  4  5  1  0  0  0
  5  6  1  0  0  0
  5  7  1  0  0  0
  7 36  1  0  0  0
 36 37  1  0  0  0
  5  8  1  0  0  0
  8  9  1  0  0  0
  9 10  2  0  0  0
 10 11  1  0  0  0
 11 12  2  0  0  0
 12 13  1  0  0  0
 13 14  2  0  0  0
 14 15  1  0  0  0
 15 16  2  0  0  0
 16 17  1  0  0  0
 17 18  1  0  0  0
 18 19  1  0  0  0
 19 20  2  0  0  0
 19 21  1  0  0  0
 21 22  2  0  0  0
 22 23  1  0  0  0
 23 24  2  0  0  0
 24 25  1  0  0  0
 25 26  2  0  0  0
 26 27  1  0  0  0
 27 28  2  0  0  0
 28 29  1  0  0  0
 29 30  1  0  0  0
 30 31  2  0  0  0
  7  1  1  0  0  0
 31  8  1  0  0  0
 29  3  1  0  0  0
 14  9  1  0  0  0
 31 15  1  0  0  0
 21 16  1  0  0  0
 30 22  1  0  0  0
 28 23  1  0  0  0
 34 35  1  0  0  0
 18 32  1  0  0  0
M  END
> <minimizedAffinity>
18.16176

> <CNNscore>
0.3269589841

> <CNNaffinity>
7.3310151100

> <CNN_VS>
2.3969411850

> <CNNaffinity_variance>
0.4556668401

$$$$
[H]c1c([H])c([H])c2c(c1[H])c1c3c(c4c5c([H])c([H])c([H])c([H])c5n5c4c1n2[C@]1([H])O[C@]5(C([H])([H])[H])[C@]([H])(OC([H])([H])[H])[C@@]([H])(N([H])C([H])([H])[H])C1([H])[H])C([H])([H])N([H])C3=O


 37 44  0  0  0  0  0  0  0  0999 V2000
    8.8939   42.5751  129.7707 C   0  0  0  0  0  0  0  0  0  0  0  0
    8.2438   43.8140  129.0715 C   0  0  0  0  0  0  0  0  0  0  0  0
    8.7845   44.8460  129.7978 C   0  0  0  0  0  0  0  0  0  0  0  0
   10.1551   44.7099  129.5982 O   0  0  0  0  0  0  0  0  0  0  0  0
   10.6600   44.0885  130.7837 C   0  0  0  0  0  0  0  0  0  0  0  0
   12.0529   43.6283  130.2879 C   0  0  0  0  0  0  0  0  0  0  0  0
    9.7461   42.9855  131.0051 C   0  0  0  0  0  0  0  0  0  0  0  0
   10.8148   45.1934  131.7067 N   0  0  0  0  0  0  0  0  0  0  0  0
   11.7359   45.2683  132.7006 C   0  0  0  0  0  0  0  0  0  0  0  0
   12.6284   44.3608  133.1949 C   0  0  0  0  0  0  0  0  0  0  0  0
   13.4724   44.6960  134.2457 C   0  0  0  0  0  0  0  0  0  0  0  0
   13.4414   45.9643  134.8340 C   0  0  0  0  0  0  0  0  0  0  0  0
   12.5428   46.8875  134.3422 C   0  0  0  0  0  0  0  0  0  0  0  0
   11.7212   46.5193  133.2987 C   0  0  0  0  0  0  0  0  0  0  0  0
   10.7710   47.2409  132.6722 C   0  0  0  0  0  0  0  0  0  0  0  0
   10.2739   48.5512  132.7440 C   0  0  0  0  0  0  0  0  0  0  0  0
   10.6901   49.6171  133.6700 C   0  0  0  0  0  0  0  0  0  0  0  0
    9.8640   50.7481  133.3327 N   0  0  0  0  0  0  0  0  0  0  0  0
    8.9898   50.4014  132.2384 C   0  0  0  0  0  0  0  0  0  0  0  0
    8.2019   51.2509  131.7940 O   0  0  0  0  0  0  0  0  0  0  0  0
    9.2802   49.0264  131.9070 C   0  0  0  0  0  0  0  0  0  0  0  0
    8.7187   48.2035  130.9406 C   0  0  0  0  0  0  0  0  0  0  0  0
    7.7266   48.2947  130.0047 C   0  0  0  0  0  0  0  0  0  0  0  0
    6.9087   49.3032  129.6139 C   0  0  0  0  0  0  0  0  0  0  0  0
    5.9799   49.0391  128.5908 C   0  0  0  0  0  0  0  0  0  0  0  0
    5.9113   47.7924  128.0100 C   0  0  0  0  0  0  0  0  0  0  0  0
    6.7544   46.7677  128.4187 C   0  0  0  0  0  0  0  0  0  0  0  0
    7.6495   47.0486  129.4159 C   0  0  0  0  0  0  0  0  0  0  0  0
    8.5414   46.2204  129.9476 N   0  0  0  0  0  0  0  0  0  0  0  0
    9.2189   46.9286  130.8897 C   0  0  0  0  0  0  0  0  0  0  0  0
   10.2344   46.4470  131.7340 C   0  0  0  0  0  0  0  0  0  0  0  0
    9.9349   51.6574  133.8425 H   0  0  0  0  0  0  0  0  0  0  0  0
    7.4495   42.1260  131.6322 C   0  0  0  0  0  0  0  0  0  0  0  0
    7.7755   41.8042  130.2807 N   0  0  0  0  0  0  0  0  0  0  0  0
    8.0073   40.7695  130.1874 H   0  0  0  0  0  0  0  0  0  0  0  0
   10.5479   41.8152  131.1527 O   0  0  0  0  0  0  0  0  0  0  0  0
   10.9509   41.5889  132.4305 C   0  0  0  0  0  0  0  0  0  0  0  0
 33 34  1  0  0  0
 34  1  1  0  0  0
  1  2  1  0  0  0
  2  3  1  0  0  0
  3  4  1  0  0  0
  4  5  1  0  0  0
  5  6  1  0  0  0
  5  7  1  0  0  0
  7 36  1  0  0  0
 36 37  1  0  0  0
  5  8  1  0  0  0
  8  9  1  0  0  0
  9 10  2  0  0  0
 10 11  1  0  0  0
 11 12  2  0  0  0
 12 13  1  0  0  0
 13 14  2  0  0  0
 14 15  1  0  0  0
 15 16  2  0  0  0
 16 17  1  0  0  0
 17 18  1  0  0  0
 18 19  1  0  0  0
 19 20  2  0  0  0
 19 21  1  0  0  0
 21 22  2  0  0  0
 22 23  1  0  0  0
 23 24  2  0  0  0
 24 25  1  0  0  0
 25 26  2  0  0  0
 26 27  1  0  0  0
 27 28  2  0  0  0
 28 29  1  0  0  0
 29 30  1  0  0  0
 30 31  2  0  0  0
  7  1  1  0  0  0
 31  8  1  0  0  0
 29  3  1  0  0  0
 14  9  1  0  0  0
 31 15  1  0  0  0
 21 16  1  0  0  0
 30 22  1  0  0  0
 28 23  1  0  0  0
 34 35  1  0  0  0
 18 32  1  0  0  0
M  END
> <minimizedAffinity>
7.09830

> <CNNscore>
0.3079874814

> <CNNaffinity>
7.4941892624

> <CNN_VS>
2.3081164360

> <CNNaffinity_variance>
0.2258997411

$$$$
[H]Oc1c([H])c([H])c2c(c1[H])C([H])([H])C([H])([H])[C@]1([H])[C@]2([H])C([H])([H])C([H])([H])[C@]2(C([H])([H])[H])[C@@]([H])(N([H])C(=O)OC(C([H])([H])[H])(C([H])([H])[H])C([H])([H])[H])C([H])([H])C([H])([H])[C@@]21[H]


 29 32  0  0  0  0  0  0  0  0999 V2000
    8.0362   49.8538  129.1664 C   0  0  0  0  0  0  0  0  0  0  0  0
    8.3384   50.5915  130.4611 C   0  0  0  0  0  0  0  0  0  0  0  0
    7.8257   49.7322  131.5856 C   0  0  0  0  0  0  0  0  0  0  0  0
    7.5675   48.3824  130.9855 C   0  0  0  0  0  0  0  0  0  0  0  0
    8.6550   47.4034  131.1115 C   0  0  0  0  0  0  0  0  0  0  0  0
   10.0343   47.9283  131.2567 C   0  0  0  0  0  0  0  0  0  0  0  0
   10.9635   46.8033  131.6352 C   0  0  0  0  0  0  0  0  0  0  0  0
   10.4522   45.4508  131.3079 C   0  0  0  0  0  0  0  0  0  0  0  0
   11.1226   44.3630  131.8817 C   0  0  0  0  0  0  0  0  0  0  0  0
   10.6593   43.1004  131.5852 C   0  0  0  0  0  0  0  0  0  0  0  0
   11.2951   41.9906  132.1333 O   0  0  0  0  0  0  0  0  0  0  0  0
    9.5843   42.8638  130.7634 C   0  0  0  0  0  0  0  0  0  0  0  0
    8.9248   43.9313  130.1993 C   0  0  0  0  0  0  0  0  0  0  0  0
    9.3680   45.2089  130.4795 C   0  0  0  0  0  0  0  0  0  0  0  0
    8.7318   46.4205  129.9297 C   0  0  0  0  0  0  0  0  0  0  0  0
    7.3871   46.2539  129.3411 C   0  0  0  0  0  0  0  0  0  0  0  0
    7.0689   47.5907  128.6509 C   0  0  0  0  0  0  0  0  0  0  0  0
    7.1390   48.7302  129.5904 C   0  0  0  0  0  0  0  0  0  0  0  0
    5.7242   49.3156  129.7012 C   0  0  0  0  0  0  0  0  0  0  0  0
   10.9472   41.6652  133.0269 H   0  0  0  0  0  0  0  0  0  0  0  0
    6.9707   52.0322  128.4918 C   0  0  0  0  0  0  0  0  0  0  0  0
    7.0641   52.5068  129.6503 O   0  0  0  0  0  0  0  0  0  0  0  0
    7.4299   50.7323  128.1864 N   0  0  0  0  0  0  0  0  0  0  0  0
    7.3324   50.3818  127.2161 H   0  0  0  0  0  0  0  0  0  0  0  0
    6.3968   52.8365  127.5191 O   0  0  0  0  0  0  0  0  0  0  0  0
    6.0515   54.6614  126.0744 C   0  0  0  0  0  0  0  0  0  0  0  0
    7.1027   53.7682  126.7421 C   0  0  0  0  0  0  0  0  0  0  0  0
    7.8917   53.1233  125.6216 C   0  0  0  0  0  0  0  0  0  0  0  0
    8.0030   54.6513  127.5489 C   0  0  0  0  0  0  0  0  0  0  0  0
 26 27  1  0  0  0
 27 28  1  0  0  0
 27 29  1  0  0  0
 27 25  1  0  0  0
 25 21  1  0  0  0
 21 22  2  0  0  0
 21 23  1  0  0  0
 23  1  1  0  0  0
  1  2  1  0  0  0
  2  3  1  0  0  0
  3  4  1  0  0  0
  4  5  1  0  0  0
  5  6  1  0  0  0
  6  7  1  0  0  0
  7  8  1  0  0  0
  8  9  2  0  0  0
  9 10  1  0  0  0
 10 11  1  0  0  0
 10 12  2  0  0  0
 12 13  1  0  0  0
 13 14  2  0  0  0
 14 15  1  0  0  0
 15 16  1  0  0  0
 16 17  1  0  0  0
 17 18  1  0  0  0
 18 19  1  0  0  0
 18  1  1  0  0  0
 18  4  1  0  0  0
 15  5  1  0  0  0
 14  8  1  0  0  0
 23 24  1  0  0  0
 11 20  1  0  0  0
M  END
> <minimizedAffinity>
-1.05536

> <CNNscore>
0.4797164500

> <CNNaffinity>
7.2345504761

> <CNN_VS>
3.4705328941

> <CNNaffinity_variance>
0.3746000528

$$$$
[H]Oc1c([H])c([H])c2c(c1[H])C([H])([H])C([H])([H])[C@]1([H])[C@]2([H])C([H])([H])C([H])([H])[C@]2(C([H])([H])[H])[C@@]([H])(N([H])C(=O)OC(C([H])([H])[H])(C([H])([H])[H])C([H])([H])[H])C([H])([H])C([H])([H])[C@@]21[H]


 29 32  0  0  0  0  0  0  0  0999 V2000
    9.1903   45.2808  131.8471 C   0  0  0  0  0  0  0  0  0  0  0  0
    7.9703   45.6932  132.6554 C   0  0  0  0  0  0  0  0  0  0  0  0
    8.2582   45.3468  134.0917 C   0  0  0  0  0  0  0  0  0  0  0  0
    9.7326   45.0821  134.1624 C   0  0  0  0  0  0  0  0  0  0  0  0
   10.5719   46.2184  134.5642 C   0  0  0  0  0  0  0  0  0  0  0  0
   10.0477   47.5812  134.3052 C   0  0  0  0  0  0  0  0  0  0  0  0
   10.9089   48.5948  135.0146 C   0  0  0  0  0  0  0  0  0  0  0  0
   12.2662   48.1093  135.3610 C   0  0  0  0  0  0  0  0  0  0  0  0
   13.0075   48.8862  136.2604 C   0  0  0  0  0  0  0  0  0  0  0  0
   14.2709   48.4479  136.5901 C   0  0  0  0  0  0  0  0  0  0  0  0
   15.0428   49.1885  137.4801 O   0  0  0  0  0  0  0  0  0  0  0  0
   14.8282   47.2992  136.0833 C   0  0  0  0  0  0  0  0  0  0  0  0
   14.1011   46.5353  135.1999 C   0  0  0  0  0  0  0  0  0  0  0  0
   12.8311   46.9511  134.8515 C   0  0  0  0  0  0  0  0  0  0  0  0
   11.9680   46.2055  133.9165 C   0  0  0  0  0  0  0  0  0  0  0  0
   12.3596   44.8121  133.6210 C   0  0  0  0  0  0  0  0  0  0  0  0
   11.4466   44.3611  132.4687 C   0  0  0  0  0  0  0  0  0  0  0  0
   10.0145   44.4860  132.8147 C   0  0  0  0  0  0  0  0  0  0  0  0
    9.4259   43.0684  132.8323 C   0  0  0  0  0  0  0  0  0  0  0  0
   14.9494   48.9568  138.4614 H   0  0  0  0  0  0  0  0  0  0  0  0
    9.0448   44.9915  129.3509 C   0  0  0  0  0  0  0  0  0  0  0  0
    9.6006   46.0953  129.1295 O   0  0  0  0  0  0  0  0  0  0  0  0
    8.8130   44.5314  130.6656 N   0  0  0  0  0  0  0  0  0  0  0  0
    8.3509   43.6138  130.8009 H   0  0  0  0  0  0  0  0  0  0  0  0
    8.6654   44.2381  128.2505 O   0  0  0  0  0  0  0  0  0  0  0  0
    8.8574   43.2811  126.1095 C   0  0  0  0  0  0  0  0  0  0  0  0
    9.5491   43.4850  127.4619 C   0  0  0  0  0  0  0  0  0  0  0  0
    9.8080   42.1026  128.0238 C   0  0  0  0  0  0  0  0  0  0  0  0
   10.8517   44.1771  127.2062 C   0  0  0  0  0  0  0  0  0  0  0  0
 26 27  1  0  0  0
 27 28  1  0  0  0
 27 29  1  0  0  0
 27 25  1  0  0  0
 25 21  1  0  0  0
 21 22  2  0  0  0
 21 23  1  0  0  0
 23  1  1  0  0  0
  1  2  1  0  0  0
  2  3  1  0  0  0
  3  4  1  0  0  0
  4  5  1  0  0  0
  5  6  1  0  0  0
  6  7  1  0  0  0
  7  8  1  0  0  0
  8  9  2  0  0  0
  9 10  1  0  0  0
 10 11  1  0  0  0
 10 12  2  0  0  0
 12 13  1  0  0  0
 13 14  2  0  0  0
 14 15  1  0  0  0
 15 16  1  0  0  0
 16 17  1  0  0  0
 17 18  1  0  0  0
 18 19  1  0  0  0
 18  1  1  0  0  0
 18  4  1  0  0  0
 15  5  1  0  0  0
 14  8  1  0  0  0
 23 24  1  0  0  0
 11 20  1  0  0  0
M  END
> <minimizedAffinity>
18.01676

> <CNNscore>
0.4641835392

> <CNNaffinity>
7.2043542862

> <CNN_VS>
3.3441426754

> <CNNaffinity_variance>
1.1930305958

$$$$
[H]Oc1c([H])c([H])c2c(c1[H])C([H])([H])C([H])([H])[C@]1([H])[C@]2([H])C([H])([H])C([H])([H])[C@]2(C([H])([H])[H])[C@@]([H])(N([H])C(=O)OC(C([H])([H])[H])(C([H])([H])[H])C([H])([H])[H])C([H])([H])C([H])([H])[C@@]21[H]


 29 32  0  0  0  0  0  0  0  0999 V2000
   10.3358   45.9394  131.5327 C   0  0  0  0  0  0  0  0  0  0  0  0
   11.3552   46.3793  130.4939 C   0  0  0  0  0  0  0  0  0  0  0  0
   10.6874   46.2681  129.1495 C   0  0  0  0  0  0  0  0  0  0  0  0
    9.2217   46.1204  129.4303 C   0  0  0  0  0  0  0  0  0  0  0  0
    8.4333   47.3592  129.4031 C   0  0  0  0  0  0  0  0  0  0  0  0
    9.1451   48.6294  129.6845 C   0  0  0  0  0  0  0  0  0  0  0  0
    8.2469   49.7936  129.3531 C   0  0  0  0  0  0  0  0  0  0  0  0
    6.8029   49.4603  129.3121 C   0  0  0  0  0  0  0  0  0  0  0  0
    5.9484   50.4105  128.7384 C   0  0  0  0  0  0  0  0  0  0  0  0
    4.6040   50.1147  128.6949 C   0  0  0  0  0  0  0  0  0  0  0  0
    3.7186   51.0298  128.1337 O   0  0  0  0  0  0  0  0  0  0  0  0
    4.0714   48.9461  129.1824 C   0  0  0  0  0  0  0  0  0  0  0  0
    4.9096   48.0120  129.7460 C   0  0  0  0  0  0  0  0  0  0  0  0
    6.2626   48.2824  129.8028 C   0  0  0  0  0  0  0  0  0  0  0  0
    7.2465   47.3494  130.3830 C   0  0  0  0  0  0  0  0  0  0  0  0
    6.7958   45.9585  130.5949 C   0  0  0  0  0  0  0  0  0  0  0  0
    7.9123   45.2809  131.4068 C   0  0  0  0  0  0  0  0  0  0  0  0
    9.2198   45.3546  130.7205 C   0  0  0  0  0  0  0  0  0  0  0  0
    9.6338   43.9171  130.3757 C   0  0  0  0  0  0  0  0  0  0  0  0
    3.5424   50.9384  127.1407 H   0  0  0  0  0  0  0  0  0  0  0  0
   11.5985   45.3989  133.6420 C   0  0  0  0  0  0  0  0  0  0  0  0
   11.7504   46.6104  133.9339 O   0  0  0  0  0  0  0  0  0  0  0  0
   10.9119   45.0005  132.4743 N   0  0  0  0  0  0  0  0  0  0  0  0
   10.8105   43.9890  132.2733 H   0  0  0  0  0  0  0  0  0  0  0  0
   12.1331   44.4625  134.5137 O   0  0  0  0  0  0  0  0  0  0  0  0
   10.3332   44.5226  136.0280 C   0  0  0  0  0  0  0  0  0  0  0  0
   11.3713   43.6261  135.3444 C   0  0  0  0  0  0  0  0  0  0  0  0
   12.1881   42.9941  136.4523 C   0  0  0  0  0  0  0  0  0  0  0  0
   10.6304   42.5627  134.5951 C   0  0  0  0  0  0  0  0  0  0  0  0
 26 27  1  0  0  0
 27 28  1  0  0  0
 27 29  1  0  0  0
 27 25  1  0  0  0
 25 21  1  0  0  0
 21 22  2  0  0  0
 21 23  1  0  0  0
 23  1  1  0  0  0
  1  2  1  0  0  0
  2  3  1  0  0  0
  3  4  1  0  0  0
  4  5  1  0  0  0
  5  6  1  0  0  0
  6  7  1  0  0  0
  7  8  1  0  0  0
  8  9  2  0  0  0
  9 10  1  0  0  0
 10 11  1  0  0  0
 10 12  2  0  0  0
 12 13  1  0  0  0
 13 14  2  0  0  0
 14 15  1  0  0  0
 15 16  1  0  0  0
 16 17  1  0  0  0
 17 18  1  0  0  0
 18 19  1  0  0  0
 18  1  1  0  0  0
 18  4  1  0  0  0
 15  5  1  0  0  0
 14  8  1  0  0  0
 23 24  1  0  0  0
 11 20  1  0  0  0
M  END
> <minimizedAffinity>
7.53690

> <CNNscore>
0.4625088871

> <CNNaffinity>
7.3996953964

> <CNN_VS>
3.4224247932

> <CNNaffinity_variance>
1.3580886126

$$$$
[H]Oc1c([H])c([H])c2c(c1[H])C([H])([H])C([H])([H])[C@]1([H])[C@]2([H])C([H])([H])C([H])([H])[C@]2(C([H])([H])[H])[C@@]([H])(N([H])C(=O)OC(C([H])([H])[H])(C([H])([H])[H])C([H])([H])[H])C([H])([H])C([H])([H])[C@@]21[H]


 29 32  0  0  0  0  0  0  0  0999 V2000
    9.9525   45.7703  132.8473 C   0  0  0  0  0  0  0  0  0  0  0  0
   10.3620   46.6389  134.0261 C   0  0  0  0  0  0  0  0  0  0  0  0
   11.0290   47.8631  133.4582 C   0  0  0  0  0  0  0  0  0  0  0  0
   10.6900   47.8745  131.9974 C   0  0  0  0  0  0  0  0  0  0  0  0
    9.5232   48.6797  131.6138 C   0  0  0  0  0  0  0  0  0  0  0  0
    8.4835   48.9120  132.6454 C   0  0  0  0  0  0  0  0  0  0  0  0
    7.5167   49.9609  132.1582 C   0  0  0  0  0  0  0  0  0  0  0  0
    7.5060   50.1474  130.6875 C   0  0  0  0  0  0  0  0  0  0  0  0
    6.8532   51.2854  130.1969 C   0  0  0  0  0  0  0  0  0  0  0  0
    6.8342   51.4707  128.8323 C   0  0  0  0  0  0  0  0  0  0  0  0
    6.1967   52.5878  128.3009 O   0  0  0  0  0  0  0  0  0  0  0  0
    7.4186   50.6014  127.9436 C   0  0  0  0  0  0  0  0  0  0  0  0
    8.0602   49.4833  128.4241 C   0  0  0  0  0  0  0  0  0  0  0  0
    8.0947   49.2724  129.7885 C   0  0  0  0  0  0  0  0  0  0  0  0
    8.7575   48.1091  130.4069 C   0  0  0  0  0  0  0  0  0  0  0  0
    9.6882   47.3446  129.5514 C   0  0  0  0  0  0  0  0  0  0  0  0
   10.0463   46.0827  130.3540 C   0  0  0  0  0  0  0  0  0  0  0  0
   10.6286   46.4110  131.6728 C   0  0  0  0  0  0  0  0  0  0  0  0
   12.0773   45.9033  131.6690 C   0  0  0  0  0  0  0  0  0  0  0  0
    6.7640   53.4180  128.1808 H   0  0  0  0  0  0  0  0  0  0  0  0
    9.5482   43.2947  132.6387 C   0  0  0  0  0  0  0  0  0  0  0  0
    8.4429   43.4617  132.0672 O   0  0  0  0  0  0  0  0  0  0  0  0
   10.3411   44.3888  133.0484 N   0  0  0  0  0  0  0  0  0  0  0  0
   11.2467   44.2035  133.5167 H   0  0  0  0  0  0  0  0  0  0  0  0
    9.9627   41.9891  132.8532 O   0  0  0  0  0  0  0  0  0  0  0  0
   12.1578   42.1829  132.0282 C   0  0  0  0  0  0  0  0  0  0  0  0
   10.8971   41.3119  132.0543 C   0  0  0  0  0  0  0  0  0  0  0  0
   10.4464   41.1665  130.6157 C   0  0  0  0  0  0  0  0  0  0  0  0
   11.2819   39.9718  132.5997 C   0  0  0  0  0  0  0  0  0  0  0  0
 26 27  1  0  0  0
 27 28  1  0  0  0
 27 29  1  0  0  0
 27 25  1  0  0  0
 25 21  1  0  0  0
 21 22  2  0  0  0
 21 23  1  0  0  0
 23  1  1  0  0  0
  1  2  1  0  0  0
  2  3  1  0  0  0
  3  4  1  0  0  0
  4  5  1  0  0  0
  5  6  1  0  0  0
  6  7  1  0  0  0
  7  8  1  0  0  0
  8  9  2  0  0  0
  9 10  1  0  0  0
 10 11  1  0  0  0
 10 12  2  0  0  0
 12 13  1  0  0  0
 13 14  2  0  0  0
 14 15  1  0  0  0
 15 16  1  0  0  0
 16 17  1  0  0  0
 17 18  1  0  0  0
 18 19  1  0  0  0
 18  1  1  0  0  0
 18  4  1  0  0  0
 15  5  1  0  0  0
 14  8  1  0  0  0
 23 24  1  0  0  0
 11 20  1  0  0  0
M  END
> <minimizedAffinity>
7.01539

> <CNNscore>
0.4549382627

> <CNNaffinity>
7.2329888344

> <CNN_VS>
3.2905633450

> <CNNaffinity_variance>
1.0826336145

$$$$
[H]Oc1c([H])c([H])c2c(c1[H])C([H])([H])C([H])([H])[C@]1([H])[C@]2([H])C([H])([H])C([H])([H])[C@]2(C([H])([H])[H])[C@@]([H])(N([H])C(=O)OC(C([H])([H])[H])(C([H])([H])[H])C([H])([H])[H])C([H])([H])C([H])([H])[C@@]21[H]


 29 32  0  0  0  0  0  0  0  0999 V2000
   11.1928   45.1902  129.7899 C   0  0  0  0  0  0  0  0  0  0  0  0
   10.2889   45.8050  128.7331 C   0  0  0  0  0  0  0  0  0  0  0  0
    8.8747   45.6620  129.2285 C   0  0  0  0  0  0  0  0  0  0  0  0
    8.9828   45.3088  130.6818 C   0  0  0  0  0  0  0  0  0  0  0  0
    8.8989   46.4315  131.6250 C   0  0  0  0  0  0  0  0  0  0  0  0
    9.2931   47.7723  131.1290 C   0  0  0  0  0  0  0  0  0  0  0  0
    8.8926   48.8193  132.1367 C   0  0  0  0  0  0  0  0  0  0  0  0
    8.6787   48.2986  133.5082 C   0  0  0  0  0  0  0  0  0  0  0  0
    8.0368   49.1495  134.4171 C   0  0  0  0  0  0  0  0  0  0  0  0
    7.8327   48.6793  135.6954 C   0  0  0  0  0  0  0  0  0  0  0  0
    7.1988   49.4909  136.6313 O   0  0  0  0  0  0  0  0  0  0  0  0
    8.2251   47.4307  136.1127 C   0  0  0  0  0  0  0  0  0  0  0  0
    8.8555   46.5940  135.2211 C   0  0  0  0  0  0  0  0  0  0  0  0
    9.0732   47.0397  133.9322 C   0  0  0  0  0  0  0  0  0  0  0  0
    9.7366   46.2227  132.8990 C   0  0  0  0  0  0  0  0  0  0  0  0
    9.8588   44.7766  133.1752 C   0  0  0  0  0  0  0  0  0  0  0  0
   10.7743   44.2204  132.0718 C   0  0  0  0  0  0  0  0  0  0  0  0
   10.2435   44.4963  130.7197 C   0  0  0  0  0  0  0  0  0  0  0  0
    9.9102   43.1425  130.0774 C   0  0  0  0  0  0  0  0  0  0  0  0
    6.1901   49.4183  136.6837 H   0  0  0  0  0  0  0  0  0  0  0  0
   13.3859   43.9553  129.8248 C   0  0  0  0  0  0  0  0  0  0  0  0
   13.6954   44.4132  130.9521 O   0  0  0  0  0  0  0  0  0  0  0  0
   12.1686   44.2980  129.1968 N   0  0  0  0  0  0  0  0  0  0  0  0
   11.9548   43.8961  128.2659 H   0  0  0  0  0  0  0  0  0  0  0  0
   14.2890   43.0965  129.2171 O   0  0  0  0  0  0  0  0  0  0  0  0
   16.3757   42.5265  128.2912 C   0  0  0  0  0  0  0  0  0  0  0  0
   15.1717   43.4695  128.1916 C   0  0  0  0  0  0  0  0  0  0  0  0
   15.7119   44.8742  128.3614 C   0  0  0  0  0  0  0  0  0  0  0  0
   14.5869   43.3165  126.8219 C   0  0  0  0  0  0  0  0  0  0  0  0
 26 27  1  0  0  0
 27 28  1  0  0  0
 27 29  1  0  0  0
 27 25  1  0  0  0
 25 21  1  0  0  0
 21 22  2  0  0  0
 21 23  1  0  0  0
 23  1  1  0  0  0
  1  2  1  0  0  0
  2  3  1  0  0  0
  3  4  1  0  0  0
  4  5  1  0  0  0
  5  6  1  0  0  0
  6  7  1  0  0  0
  7  8  1  0  0  0
  8  9  2  0  0  0
  9 10  1  0  0  0
 10 11  1  0  0  0
 10 12  2  0  0  0
 12 13  1  0  0  0
 13 14  2  0  0  0
 14 15  1  0  0  0
 15 16  1  0  0  0
 16 17  1  0  0  0
 17 18  1  0  0  0
 18 19  1  0  0  0
 18  1  1  0  0  0
 18  4  1  0  0  0
 15  5  1  0  0  0
 14  8  1  0  0  0
 23 24  1  0  0  0
 11 20  1  0  0  0
M  END
> <minimizedAffinity>
20.51323

> <CNNscore>
0.4296579659

> <CNNaffinity>
7.3473434448

> <CNN_VS>
3.1568446159

> <CNNaffinity_variance>
1.4128735065

$$$$
[H]Oc1c([H])c([H])c2c(c1[H])C([H])([H])C([H])([H])[C@]1([H])[C@]2([H])C([H])([H])C([H])([H])[C@]2(C([H])([H])[H])[C@@]([H])(N([H])C(=O)OC(C([H])([H])[H])(C([H])([H])[H])C([H])([H])[H])C([H])([H])C([H])([H])[C@@]21[H]


 29 32  0  0  0  0  0  0  0  0999 V2000
    8.6887   47.1622  131.6612 C   0  0  0  0  0  0  0  0  0  0  0  0
    8.4310   46.2448  132.8459 C   0  0  0  0  0  0  0  0  0  0  0  0
    8.5233   44.8319  132.3349 C   0  0  0  0  0  0  0  0  0  0  0  0
    9.1718   44.9251  130.9860 C   0  0  0  0  0  0  0  0  0  0  0  0
   10.6271   44.7298  130.9567 C   0  0  0  0  0  0  0  0  0  0  0  0
   11.3833   45.0354  132.1952 C   0  0  0  0  0  0  0  0  0  0  0  0
   12.7963   44.5283  132.0600 C   0  0  0  0  0  0  0  0  0  0  0  0
   13.2390   44.3155  130.6613 C   0  0  0  0  0  0  0  0  0  0  0  0
   14.4197   43.5855  130.4734 C   0  0  0  0  0  0  0  0  0  0  0  0
   14.8437   43.3813  129.1791 C   0  0  0  0  0  0  0  0  0  0  0  0
   16.0115   42.6615  128.9458 O   0  0  0  0  0  0  0  0  0  0  0  0
   14.1698   43.8551  128.0798 C   0  0  0  0  0  0  0  0  0  0  0  0
   13.0100   44.5721  128.2628 C   0  0  0  0  0  0  0  0  0  0  0  0
   12.5615   44.7919  129.5503 C   0  0  0  0  0  0  0  0  0  0  0  0
   11.3306   45.5444  129.8566 C   0  0  0  0  0  0  0  0  0  0  0  0
   10.3943   45.7677  128.7359 C   0  0  0  0  0  0  0  0  0  0  0  0
    9.3405   46.7536  129.2672 C   0  0  0  0  0  0  0  0  0  0  0  0
    8.6634   46.2421  130.4780 C   0  0  0  0  0  0  0  0  0  0  0  0
    7.1863   46.0305  130.1175 C   0  0  0  0  0  0  0  0  0  0  0  0
   15.9110   41.6601  128.8336 H   0  0  0  0  0  0  0  0  0  0  0  0
    7.9838   49.5097  131.0885 C   0  0  0  0  0  0  0  0  0  0  0  0
    9.1288   49.8180  130.6761 O   0  0  0  0  0  0  0  0  0  0  0  0
    7.7002   48.2192  131.5862 N   0  0  0  0  0  0  0  0  0  0  0  0
    6.7405   48.0092  131.9160 H   0  0  0  0  0  0  0  0  0  0  0  0
    7.0037   50.4892  131.0364 O   0  0  0  0  0  0  0  0  0  0  0  0
    6.1426   49.3795  129.1486 C   0  0  0  0  0  0  0  0  0  0  0  0
    6.1340   50.6845  129.9522 C   0  0  0  0  0  0  0  0  0  0  0  0
    6.6038   51.7722  129.0088 C   0  0  0  0  0  0  0  0  0  0  0  0
    4.7209   50.9531  130.3673 C   0  0  0  0  0  0  0  0  0  0  0  0
 26 27  1  0  0  0
 27 28  1  0  0  0
 27 29  1  0  0  0
 27 25  1  0  0  0
 25 21  1  0  0  0
 21 22  2  0  0  0
 21 23  1  0  0  0
 23  1  1  0  0  0
  1  2  1  0  0  0
  2  3  1  0  0  0
  3  4  1  0  0  0
  4  5  1  0  0  0
  5  6  1  0  0  0
  6  7  1  0  0  0
  7  8  1  0  0  0
  8  9  2  0  0  0
  9 10  1  0  0  0
 10 11  1  0  0  0
 10 12  2  0  0  0
 12 13  1  0  0  0
 13 14  2  0  0  0
 14 15  1  0  0  0
 15 16  1  0  0  0
 16 17  1  0  0  0
 17 18  1  0  0  0
 18 19  1  0  0  0
 18  1  1  0  0  0
 18  4  1  0  0  0
 15  5  1  0  0  0
 14  8  1  0  0  0
 23 24  1  0  0  0
 11 20  1  0  0  0
M  END
> <minimizedAffinity>
7.06146

> <CNNscore>
0.4269143939

> <CNNaffinity>
7.2768807411

> <CNN_VS>
3.1066050529

> <CNNaffinity_variance>
0.9764897227

$$$$
[H]Oc1c([H])c([H])c2c(c1[H])C([H])([H])C([H])([H])[C@]1([H])[C@]2([H])C([H])([H])C([H])([H])[C@]2(C([H])([H])[H])[C@@]([H])(N([H])C(=O)OC(C([H])([H])[H])(C([H])([H])[H])C([H])([H])[H])C([H])([H])C([H])([H])[C@@]21[H]


 29 32  0  0  0  0  0  0  0  0999 V2000
    7.8832   50.0345  129.2775 C   0  0  0  0  0  0  0  0  0  0  0  0
    7.3622   50.5539  130.6081 C   0  0  0  0  0  0  0  0  0  0  0  0
    6.8768   49.3597  131.3853 C   0  0  0  0  0  0  0  0  0  0  0  0
    7.4328   48.1582  130.6811 C   0  0  0  0  0  0  0  0  0  0  0  0
    8.6981   47.6312  131.2089 C   0  0  0  0  0  0  0  0  0  0  0  0
    9.5834   48.5754  131.9325 C   0  0  0  0  0  0  0  0  0  0  0  0
   10.6842   47.8075  132.6187 C   0  0  0  0  0  0  0  0  0  0  0  0
   10.9304   46.4576  132.0576 C   0  0  0  0  0  0  0  0  0  0  0  0
   11.7285   45.5912  132.8155 C   0  0  0  0  0  0  0  0  0  0  0  0
   11.9668   44.3342  132.3056 C   0  0  0  0  0  0  0  0  0  0  0  0
   12.7544   43.4406  133.0251 O   0  0  0  0  0  0  0  0  0  0  0  0
   11.4638   43.8987  131.1039 C   0  0  0  0  0  0  0  0  0  0  0  0
   10.6797   44.7485  130.3585 C   0  0  0  0  0  0  0  0  0  0  0  0
   10.4244   46.0152  130.8457 C   0  0  0  0  0  0  0  0  0  0  0  0
    9.5954   47.0018  130.1285 C   0  0  0  0  0  0  0  0  0  0  0  0
    8.7534   46.4860  129.0297 C   0  0  0  0  0  0  0  0  0  0  0  0
    8.1900   47.7292  128.3213 C   0  0  0  0  0  0  0  0  0  0  0  0
    7.4394   48.6030  129.2483 C   0  0  0  0  0  0  0  0  0  0  0  0
    5.9759   48.6060  128.7851 C   0  0  0  0  0  0  0  0  0  0  0  0
   12.2717   42.8388  133.6810 H   0  0  0  0  0  0  0  0  0  0  0  0
    6.9468   52.1554  128.2973 C   0  0  0  0  0  0  0  0  0  0  0  0
    6.9882   52.7551  129.3996 O   0  0  0  0  0  0  0  0  0  0  0  0
    7.3724   50.8153  128.1687 N   0  0  0  0  0  0  0  0  0  0  0  0
    7.3202   50.3603  127.2391 H   0  0  0  0  0  0  0  0  0  0  0  0
    6.4649   52.8623  127.2062 O   0  0  0  0  0  0  0  0  0  0  0  0
    6.2206   54.6613  125.7093 C   0  0  0  0  0  0  0  0  0  0  0  0
    7.2231   53.7713  126.4521 C   0  0  0  0  0  0  0  0  0  0  0  0
    8.0663   53.0965  125.3902 C   0  0  0  0  0  0  0  0  0  0  0  0
    8.0865   54.6615  127.2908 C   0  0  0  0  0  0  0  0  0  0  0  0
 26 27  1  0  0  0
 27 28  1  0  0  0
 27 29  1  0  0  0
 27 25  1  0  0  0
 25 21  1  0  0  0
 21 22  2  0  0  0
 21 23  1  0  0  0
 23  1  1  0  0  0
  1  2  1  0  0  0
  2  3  1  0  0  0
  3  4  1  0  0  0
  4  5  1  0  0  0
  5  6  1  0  0  0
  6  7  1  0  0  0
  7  8  1  0  0  0
  8  9  2  0  0  0
  9 10  1  0  0  0
 10 11  1  0  0  0
 10 12  2  0  0  0
 12 13  1  0  0  0
 13 14  2  0  0  0
 14 15  1  0  0  0
 15 16  1  0  0  0
 16 17  1  0  0  0
 17 18  1  0  0  0
 18 19  1  0  0  0
 18  1  1  0  0  0
 18  4  1  0  0  0
 15  5  1  0  0  0
 14  8  1  0  0  0
 23 24  1  0  0  0
 11 20  1  0  0  0
M  END
> <minimizedAffinity>
-0.93029

> <CNNscore>
0.4114396572

> <CNNaffinity>
7.1742234230

> <CNN_VS>
2.9517600536

> <CNNaffinity_variance>
0.3712095618

$$$$
[H]Oc1c([H])c([H])c2c(c1[H])C([H])([H])C([H])([H])[C@]1([H])[C@]2([H])C([H])([H])C([H])([H])[C@]2(C([H])([H])[H])[C@@]([H])(N([H])C(=O)OC(C([H])([H])[H])(C([H])([H])[H])C([H])([H])[H])C([H])([H])C([H])([H])[C@@]21[H]


 29 32  0  0  0  0  0  0  0  0999 V2000
    9.8813   46.5682  134.3646 C   0  0  0  0  0  0  0  0  0  0  0  0
    8.5921   45.9461  134.8770 C   0  0  0  0  0  0  0  0  0  0  0  0
    7.5928   46.0194  133.7536 C   0  0  0  0  0  0  0  0  0  0  0  0
    8.3845   46.3380  132.5205 C   0  0  0  0  0  0  0  0  0  0  0  0
    8.7932   45.1881  131.7033 C   0  0  0  0  0  0  0  0  0  0  0  0
    8.9268   43.8778  132.3846 C   0  0  0  0  0  0  0  0  0  0  0  0
    9.0884   42.7893  131.3545 C   0  0  0  0  0  0  0  0  0  0  0  0
    9.5551   43.2644  130.0301 C   0  0  0  0  0  0  0  0  0  0  0  0
    9.4535   42.3648  128.9612 C   0  0  0  0  0  0  0  0  0  0  0  0
    9.8848   42.7924  127.7251 C   0  0  0  0  0  0  0  0  0  0  0  0
    9.8024   41.9316  126.6348 O   0  0  0  0  0  0  0  0  0  0  0  0
   10.4028   44.0440  127.4971 C   0  0  0  0  0  0  0  0  0  0  0  0
   10.5031   44.9286  128.5459 C   0  0  0  0  0  0  0  0  0  0  0  0
   10.0780   44.5264  129.7968 C   0  0  0  0  0  0  0  0  0  0  0  0
   10.1390   45.3963  130.9862 C   0  0  0  0  0  0  0  0  0  0  0  0
   10.3480   46.8382  130.7424 C   0  0  0  0  0  0  0  0  0  0  0  0
   10.6009   47.4595  132.1262 C   0  0  0  0  0  0  0  0  0  0  0  0
    9.4872   47.1987  133.0630 C   0  0  0  0  0  0  0  0  0  0  0  0
    8.8545   48.5548  133.4055 C   0  0  0  0  0  0  0  0  0  0  0  0
    8.9444   41.9625  126.0978 H   0  0  0  0  0  0  0  0  0  0  0  0
   11.8126   47.6980  135.5175 C   0  0  0  0  0  0  0  0  0  0  0  0
   12.6633   47.0403  134.8694 O   0  0  0  0  0  0  0  0  0  0  0  0
   10.4271   47.5139  135.3172 N   0  0  0  0  0  0  0  0  0  0  0  0
    9.7610   48.0790  135.8748 H   0  0  0  0  0  0  0  0  0  0  0  0
   12.2875   48.6161  136.4416 O   0  0  0  0  0  0  0  0  0  0  0  0
   13.8051   49.6835  137.8888 C   0  0  0  0  0  0  0  0  0  0  0  0
   13.6130   49.0743  136.4957 C   0  0  0  0  0  0  0  0  0  0  0  0
   13.8947   50.1811  135.5010 C   0  0  0  0  0  0  0  0  0  0  0  0
   14.6243   47.9822  136.3341 C   0  0  0  0  0  0  0  0  0  0  0  0
 26 27  1  0  0  0
 27 28  1  0  0  0
 27 29  1  0  0  0
 27 25  1  0  0  0
 25 21  1  0  0  0
 21 22  2  0  0  0
 21 23  1  0  0  0
 23  1  1  0  0  0
  1  2  1  0  0  0
  2  3  1  0  0  0
  3  4  1  0  0  0
  4  5  1  0  0  0
  5  6  1  0  0  0
  6  7  1  0  0  0
  7  8  1  0  0  0
  8  9  2  0  0  0
  9 10  1  0  0  0
 10 11  1  0  0  0
 10 12  2  0  0  0
 12 13  1  0  0  0
 13 14  2  0  0  0
 14 15  1  0  0  0
 15 16  1  0  0  0
 16 17  1  0  0  0
 17 18  1  0  0  0
 18 19  1  0  0  0
 18  1  1  0  0  0
 18  4  1  0  0  0
 15  5  1  0  0  0
 14  8  1  0  0  0
 23 24  1  0  0  0
 11 20  1  0  0  0
M  END
> <minimizedAffinity>
15.59777

> <CNNscore>
0.3980433941

> <CNNaffinity>
7.2402639389

> <CNN_VS>
2.8819391727

> <CNNaffinity_variance>
1.3842521906

$$$$
[H]Oc1c([H])c([H])c2c(c1[H])C([H])([H])C([H])([H])[C@]1([H])[C@]2([H])C([H])([H])C([H])([H])[C@]2(C([H])([H])[H])[C@@]([H])(N([H])C(=O)OC(C([H])([H])[H])(C([H])([H])[H])C([H])([H])[H])C([H])([H])C([H])([H])[C@@]21[H]


 29 32  0  0  0  0  0  0  0  0999 V2000
    8.3024   45.8002  129.3326 C   0  0  0  0  0  0  0  0  0  0  0  0
    8.6672   44.7160  128.3310 C   0  0  0  0  0  0  0  0  0  0  0  0
   10.1680   44.7138  128.2142 C   0  0  0  0  0  0  0  0  0  0  0  0
   10.6712   45.5159  129.3770 C   0  0  0  0  0  0  0  0  0  0  0  0
   11.0465   44.7502  130.5727 C   0  0  0  0  0  0  0  0  0  0  0  0
   10.3971   43.4320  130.7725 C   0  0  0  0  0  0  0  0  0  0  0  0
   11.0930   42.6919  131.8861 C   0  0  0  0  0  0  0  0  0  0  0  0
   11.8697   43.5582  132.8049 C   0  0  0  0  0  0  0  0  0  0  0  0
   12.7605   42.9200  133.6774 C   0  0  0  0  0  0  0  0  0  0  0  0
   13.4877   43.7124  134.5377 C   0  0  0  0  0  0  0  0  0  0  0  0
   14.3846   43.1207  135.4220 O   0  0  0  0  0  0  0  0  0  0  0  0
   13.3798   45.0812  134.5775 C   0  0  0  0  0  0  0  0  0  0  0  0
   12.5054   45.7093  133.7210 C   0  0  0  0  0  0  0  0  0  0  0  0
   11.7632   44.9391  132.8474 C   0  0  0  0  0  0  0  0  0  0  0  0
   10.8010   45.5116  131.8875 C   0  0  0  0  0  0  0  0  0  0  0  0
   10.8976   46.9646  131.6391 C   0  0  0  0  0  0  0  0  0  0  0  0
    9.6590   47.3247  130.8018 C   0  0  0  0  0  0  0  0  0  0  0  0
    9.5881   46.5395  129.5509 C   0  0  0  0  0  0  0  0  0  0  0  0
    9.7299   47.5280  128.3851 C   0  0  0  0  0  0  0  0  0  0  0  0
   15.3333   42.9982  135.0897 H   0  0  0  0  0  0  0  0  0  0  0  0
    6.2388   47.2029  129.6637 C   0  0  0  0  0  0  0  0  0  0  0  0
    6.2237   46.9972  130.9021 O   0  0  0  0  0  0  0  0  0  0  0  0
    7.2346   46.6432  128.8337 N   0  0  0  0  0  0  0  0  0  0  0  0
    7.2076   46.8400  127.8166 H   0  0  0  0  0  0  0  0  0  0  0  0
    5.2360   48.0043  129.1395 O   0  0  0  0  0  0  0  0  0  0  0  0
    5.2782   49.9107  130.5180 C   0  0  0  0  0  0  0  0  0  0  0  0
    5.2939   49.4050  129.0714 C   0  0  0  0  0  0  0  0  0  0  0  0
    4.0843   50.0121  128.3916 C   0  0  0  0  0  0  0  0  0  0  0  0
    6.5442   49.9154  128.4252 C   0  0  0  0  0  0  0  0  0  0  0  0
 26 27  1  0  0  0
 27 28  1  0  0  0
 27 29  1  0  0  0
 27 25  1  0  0  0
 25 21  1  0  0  0
 21 22  2  0  0  0
 21 23  1  0  0  0
 23  1  1  0  0  0
  1  2  1  0  0  0
  2  3  1  0  0  0
  3  4  1  0  0  0
  4  5  1  0  0  0
  5  6  1  0  0  0
  6  7  1  0  0  0
  7  8  1  0  0  0
  8  9  2  0  0  0
  9 10  1  0  0  0
 10 11  1  0  0  0
 10 12  2  0  0  0
 12 13  1  0  0  0
 13 14  2  0  0  0
 14 15  1  0  0  0
 15 16  1  0  0  0
 16 17  1  0  0  0
 17 18  1  0  0  0
 18 19  1  0  0  0
 18  1  1  0  0  0
 18  4  1  0  0  0
 15  5  1  0  0  0
 14  8  1  0  0  0
 23 24  1  0  0  0
 11 20  1  0  0  0
M  END
> <minimizedAffinity>
9.35297

> <CNNscore>
0.3903796673

> <CNNaffinity>
7.2662162781

> <CNN_VS>
2.8365831375

> <CNNaffinity_variance>
1.2280536890

$$$$
[H]O[C@@]([H])(C([H])([H])C(=O)N([H])[C@]([H])(C(=O)N([H])[C@]([H])(C(=O)N([H])[H])C([H])([H])C([H])(C([H])([H])[H])C([H])([H])[H])C([H])([H])[H])[C@@]([H])(N([H])C(=O)[C@@]([H])(N([H])C(=O)[C@@]([H])(N([H])C(=O)C([H])([H])C([H])(C([H])([H])[H])C([H])([H])[H])C([H])(C([H])([H])[H])C([H])([H])[H])C([H])(C([H])([H])[H])C([H])([H])[H])C([H])([H])C([H])(C([H])([H])[H])C([H])([H])[H]


 53 52  0  0  0  0  0  0  0  0999 V2000
    8.2621   44.4423  132.7713 C   0  0  0  0  0  0  0  0  0  0  0  0
    8.8248   44.9285  131.5202 N   0  0  0  0  0  0  0  0  0  0  0  0
    8.6005   44.3340  130.2686 C   0  0  0  0  0  0  0  0  0  0  0  0
    7.8613   43.3171  130.2354 O   0  0  0  0  0  0  0  0  0  0  0  0
    9.4263   45.7740  131.5815 H   0  0  0  0  0  0  0  0  0  0  0  0
    9.1915   44.8515  129.0487 C   0  0  0  0  0  0  0  0  0  0  0  0
   10.5696   45.3071  129.3140 N   0  0  0  0  0  0  0  0  0  0  0  0
   11.5294   44.4191  129.8315 C   0  0  0  0  0  0  0  0  0  0  0  0
   11.2420   43.1896  130.0764 O   0  0  0  0  0  0  0  0  0  0  0  0
   10.8013   46.2789  129.1111 H   0  0  0  0  0  0  0  0  0  0  0  0
   12.9000   44.8944  130.1056 C   0  0  0  0  0  0  0  0  0  0  0  0
   13.1286   44.9424  131.5297 N   0  0  0  0  0  0  0  0  0  0  0  0
   12.3532   45.5519  132.5026 C   0  0  0  0  0  0  0  0  0  0  0  0
   11.2975   46.1506  132.1749 O   0  0  0  0  0  0  0  0  0  0  0  0
   14.0109   44.4343  131.8313 H   0  0  0  0  0  0  0  0  0  0  0  0
   12.7343   45.5147  133.9221 C   0  0  0  0  0  0  0  0  0  0  0  0
   12.6781   44.1323  134.5405 C   0  0  0  0  0  0  0  0  0  0  0  0
   12.7725   43.0602  133.4889 C   0  0  0  0  0  0  0  0  0  0  0  0
   11.5126   43.9329  135.4501 C   0  0  0  0  0  0  0  0  0  0  0  0
   13.9634   44.2115  129.3344 C   0  0  0  0  0  0  0  0  0  0  0  0
   13.4702   43.9744  127.9081 C   0  0  0  0  0  0  0  0  0  0  0  0
   15.3107   44.8511  129.3539 C   0  0  0  0  0  0  0  0  0  0  0  0
    9.1113   44.0540  127.8110 C   0  0  0  0  0  0  0  0  0  0  0  0
    9.6763   44.6730  126.5623 C   0  0  0  0  0  0  0  0  0  0  0  0
    9.5241   42.6199  127.8946 C   0  0  0  0  0  0  0  0  0  0  0  0
    7.8204   45.5485  133.6301 C   0  0  0  0  0  0  0  0  0  0  0  0
    6.7119   45.1234  134.4313 O   0  0  0  0  0  0  0  0  0  0  0  0
    7.1127   44.6708  135.2227 H   0  0  0  0  0  0  0  0  0  0  0  0
    8.8479   46.0132  134.5896 C   0  0  0  0  0  0  0  0  0  0  0  0
    8.9639   48.0186  133.0874 N   0  0  0  0  0  0  0  0  0  0  0  0
    9.4440   47.3218  134.2561 C   0  0  0  0  0  0  0  0  0  0  0  0
   10.3483   47.9198  134.8788 O   0  0  0  0  0  0  0  0  0  0  0  0
    8.2227   47.5816  132.5311 H   0  0  0  0  0  0  0  0  0  0  0  0
    9.5162   49.2865  132.7268 C   0  0  0  0  0  0  0  0  0  0  0  0
   11.0273   49.3108  132.9892 C   0  0  0  0  0  0  0  0  0  0  0  0
    8.1211   49.3334  130.5914 N   0  0  0  0  0  0  0  0  0  0  0  0
    9.3050   49.6329  131.3109 C   0  0  0  0  0  0  0  0  0  0  0  0
   10.2527   50.2308  130.7238 O   0  0  0  0  0  0  0  0  0  0  0  0
    7.3860   48.8252  131.2069 H   0  0  0  0  0  0  0  0  0  0  0  0
    7.8213   49.6061  129.2354 C   0  0  0  0  0  0  0  0  0  0  0  0
    6.8643   50.7553  129.1518 C   0  0  0  0  0  0  0  0  0  0  0  0
    6.9820   51.7910  128.2027 N   0  0  0  0  0  0  0  0  0  0  0  0
    5.9155   50.7882  129.9696 O   0  0  0  0  0  0  0  0  0  0  0  0
    7.2795   52.7763  128.4650 H   0  0  0  0  0  0  0  0  0  0  0  0
    6.7745   51.6134  127.1984 H   0  0  0  0  0  0  0  0  0  0  0  0
    7.3125   48.5368  128.3513 C   0  0  0  0  0  0  0  0  0  0  0  0
    7.0592   47.1198  130.3853 C   0  0  0  0  0  0  0  0  0  0  0  0
    6.5252   47.4312  128.9776 C   0  0  0  0  0  0  0  0  0  0  0  0
    5.0465   47.6578  129.0018 C   0  0  0  0  0  0  0  0  0  0  0  0
    9.2171   43.4742  133.4030 C   0  0  0  0  0  0  0  0  0  0  0  0
    9.1478   42.0499  133.0779 C   0  0  0  0  0  0  0  0  0  0  0  0
    9.1333   41.1017  134.2508 C   0  0  0  0  0  0  0  0  0  0  0  0
   10.4065   41.7233  132.2468 C   0  0  0  0  0  0  0  0  0  0  0  0
 47 48  1  0  0  0
 48 49  1  0  0  0
 48 46  1  0  0  0
 46 40  1  0  0  0
 40 36  1  0  0  0
 36 37  1  0  0  0
 37 38  2  0  0  0
 37 34  1  0  0  0
 34 35  1  0  0  0
 34 30  1  0  0  0
 30 31  1  0  0  0
 31 32  2  0  0  0
 31 29  1  0  0  0
 29 26  1  0  0  0
 26 27  1  0  0  0
 26  1  1  0  0  0
  1 50  1  0  0  0
 50 51  1  0  0  0
 51 52  1  0  0  0
 51 53  1  0  0  0
  1  2  1  0  0  0
  2  3  1  0  0  0
  3  4  2  0  0  0
  3  6  1  0  0  0
  6  7  1  0  0  0
  7  8  1  0  0  0
  8  9  2  0  0  0
  8 11  1  0  0  0
 11 12  1  0  0  0
 12 13  1  0  0  0
 13 14  2  0  0  0
 13 16  1  0  0  0
 16 17  1  0  0  0
 17 18  1  0  0  0
 17 19  1  0  0  0
 11 20  1  0  0  0
 20 21  1  0  0  0
 20 22  1  0  0  0
  6 23  1  0  0  0
 23 24  1  0  0  0
 23 25  1  0  0  0
 40 41  1  0  0  0
 41 42  1  0  0  0
 41 43  2  0  0  0
 36 39  1  0  0  0
 30 33  1  0  0  0
 27 28  1  0  0  0
  2  5  1  0  0  0
  7 10  1  0  0  0
 12 15  1  0  0  0
 42 44  1  0  0  0
 42 45  1  0  0  0
M  END
> <minimizedAffinity>
4.46446

> <CNNscore>
0.4132900536

> <CNNaffinity>
8.1292371750

> <CNN_VS>
3.3597328663

> <CNNaffinity_variance>
0.3360882699

$$$$
[H]O[C@@]([H])(C([H])([H])C(=O)N([H])[C@]([H])(C(=O)N([H])[C@]([H])(C(=O)N([H])[H])C([H])([H])C([H])(C([H])([H])[H])C([H])([H])[H])C([H])([H])[H])[C@@]([H])(N([H])C(=O)[C@@]([H])(N([H])C(=O)[C@@]([H])(N([H])C(=O)C([H])([H])C([H])(C([H])([H])[H])C([H])([H])[H])C([H])(C([H])([H])[H])C([H])([H])[H])C([H])(C([H])([H])[H])C([H])([H])[H])C([H])([H])C([H])(C([H])([H])[H])C([H])([H])[H]


 53 52  0  0  0  0  0  0  0  0999 V2000
    7.9052   50.2477  130.1470 C   0  0  0  0  0  0  0  0  0  0  0  0
    7.0130   49.0981  130.1224 N   0  0  0  0  0  0  0  0  0  0  0  0
    7.2193   47.9540  129.3359 C   0  0  0  0  0  0  0  0  0  0  0  0
    8.2464   47.9283  128.6105 O   0  0  0  0  0  0  0  0  0  0  0  0
    6.1767   49.1487  130.7376 H   0  0  0  0  0  0  0  0  0  0  0  0
    6.2954   46.8352  129.3393 C   0  0  0  0  0  0  0  0  0  0  0  0
    6.9452   45.6509  129.9330 N   0  0  0  0  0  0  0  0  0  0  0  0
    7.5254   45.7193  131.2122 C   0  0  0  0  0  0  0  0  0  0  0  0
    7.4977   46.8034  131.9038 O   0  0  0  0  0  0  0  0  0  0  0  0
    6.9592   44.7884  129.3899 H   0  0  0  0  0  0  0  0  0  0  0  0
    8.1850   44.5296  131.7859 C   0  0  0  0  0  0  0  0  0  0  0  0
    9.3785   44.2192  131.0363 N   0  0  0  0  0  0  0  0  0  0  0  0
    9.5162   43.3548  129.9625 C   0  0  0  0  0  0  0  0  0  0  0  0
    8.5127   42.7347  129.5278 O   0  0  0  0  0  0  0  0  0  0  0  0
   10.2380   44.7394  131.3800 H   0  0  0  0  0  0  0  0  0  0  0  0
   10.8165   43.1431  129.3098 C   0  0  0  0  0  0  0  0  0  0  0  0
   11.7010   44.3732  129.2822 C   0  0  0  0  0  0  0  0  0  0  0  0
   12.1923   44.7227  130.6608 C   0  0  0  0  0  0  0  0  0  0  0  0
   11.0794   45.5392  128.5896 C   0  0  0  0  0  0  0  0  0  0  0  0
    8.3728   44.5671  133.2540 C   0  0  0  0  0  0  0  0  0  0  0  0
    8.9665   43.2369  133.7143 C   0  0  0  0  0  0  0  0  0  0  0  0
    9.1356   45.7292  133.7948 C   0  0  0  0  0  0  0  0  0  0  0  0
    4.9302   47.0260  129.8630 C   0  0  0  0  0  0  0  0  0  0  0  0
    4.3046   48.3787  129.6613 C   0  0  0  0  0  0  0  0  0  0  0  0
    3.9288   45.9574  129.5649 C   0  0  0  0  0  0  0  0  0  0  0  0
    7.8422   51.0064  128.8912 C   0  0  0  0  0  0  0  0  0  0  0  0
    7.6826   50.1038  127.7906 O   0  0  0  0  0  0  0  0  0  0  0  0
    6.7044   49.9263  127.7309 H   0  0  0  0  0  0  0  0  0  0  0  0
    6.6956   51.9395  128.8083 C   0  0  0  0  0  0  0  0  0  0  0  0
    6.9083   53.5777  126.9208 N   0  0  0  0  0  0  0  0  0  0  0  0
    7.0448   53.2910  128.3283 C   0  0  0  0  0  0  0  0  0  0  0  0
    7.4638   54.2499  129.0124 O   0  0  0  0  0  0  0  0  0  0  0  0
    6.5700   52.8330  126.3036 H   0  0  0  0  0  0  0  0  0  0  0  0
    7.2388   54.8724  126.4137 C   0  0  0  0  0  0  0  0  0  0  0  0
    8.7371   55.1524  126.5854 C   0  0  0  0  0  0  0  0  0  0  0  0
    5.8152   54.4166  124.3464 N   0  0  0  0  0  0  0  0  0  0  0  0
    6.9158   55.0393  124.9864 C   0  0  0  0  0  0  0  0  0  0  0  0
    7.6832   55.7860  124.3128 O   0  0  0  0  0  0  0  0  0  0  0  0
    5.2344   53.8079  125.0318 H   0  0  0  0  0  0  0  0  0  0  0  0
    5.4246   54.4969  122.9884 C   0  0  0  0  0  0  0  0  0  0  0  0
    3.9732   54.1500  122.8598 C   0  0  0  0  0  0  0  0  0  0  0  0
    3.3827   53.7348  121.6489 N   0  0  0  0  0  0  0  0  0  0  0  0
    3.2574   54.2354  123.8848 O   0  0  0  0  0  0  0  0  0  0  0  0
    2.7155   54.3502  121.0972 H   0  0  0  0  0  0  0  0  0  0  0  0
    3.5885   52.7932  121.2563 H   0  0  0  0  0  0  0  0  0  0  0  0
    6.1577   53.7397  121.9525 C   0  0  0  0  0  0  0  0  0  0  0  0
    7.8486   55.5432  121.6405 C   0  0  0  0  0  0  0  0  0  0  0  0
    7.6135   54.0300  121.7771 C   0  0  0  0  0  0  0  0  0  0  0  0
    8.4959   53.4422  122.8327 C   0  0  0  0  0  0  0  0  0  0  0  0
    9.2746   49.8054  130.5678 C   0  0  0  0  0  0  0  0  0  0  0  0
    9.4538   49.0147  131.7851 C   0  0  0  0  0  0  0  0  0  0  0  0
    9.9474   49.7650  132.9969 C   0  0  0  0  0  0  0  0  0  0  0  0
   10.5073   47.9346  131.4608 C   0  0  0  0  0  0  0  0  0  0  0  0
 47 48  1  0  0  0
 48 49  1  0  0  0
 48 46  1  0  0  0
 46 40  1  0  0  0
 40 36  1  0  0  0
 36 37  1  0  0  0
 37 38  2  0  0  0
 37 34  1  0  0  0
 34 35  1  0  0  0
 34 30  1  0  0  0
 30 31  1  0  0  0
 31 32  2  0  0  0
 31 29  1  0  0  0
 29 26  1  0  0  0
 26 27  1  0  0  0
 26  1  1  0  0  0
  1 50  1  0  0  0
 50 51  1  0  0  0
 51 52  1  0  0  0
 51 53  1  0  0  0
  1  2  1  0  0  0
  2  3  1  0  0  0
  3  4  2  0  0  0
  3  6  1  0  0  0
  6  7  1  0  0  0
  7  8  1  0  0  0
  8  9  2  0  0  0
  8 11  1  0  0  0
 11 12  1  0  0  0
 12 13  1  0  0  0
 13 14  2  0  0  0
 13 16  1  0  0  0
 16 17  1  0  0  0
 17 18  1  0  0  0
 17 19  1  0  0  0
 11 20  1  0  0  0
 20 21  1  0  0  0
 20 22  1  0  0  0
  6 23  1  0  0  0
 23 24  1  0  0  0
 23 25  1  0  0  0
 40 41  1  0  0  0
 41 42  1  0  0  0
 41 43  2  0  0  0
 36 39  1  0  0  0
 30 33  1  0  0  0
 27 28  1  0  0  0
  2  5  1  0  0  0
  7 10  1  0  0  0
 12 15  1  0  0  0
 42 44  1  0  0  0
 42 45  1  0  0  0
M  END
> <minimizedAffinity>
0.59239

> <CNNscore>
0.3927141428

> <CNNaffinity>
7.5509209633

> <CNN_VS>
2.9653534889

> <CNNaffinity_variance>
0.2000038177

$$$$
[H]O[C@@]([H])(C([H])([H])C(=O)N([H])[C@]([H])(C(=O)N([H])[C@]([H])(C(=O)N([H])[H])C([H])([H])C([H])(C([H])([H])[H])C([H])([H])[H])C([H])([H])[H])[C@@]([H])(N([H])C(=O)[C@@]([H])(N([H])C(=O)[C@@]([H])(N([H])C(=O)C([H])([H])C([H])(C([H])([H])[H])C([H])([H])[H])C([H])(C([H])([H])[H])C([H])([H])[H])C([H])(C([H])([H])[H])C([H])([H])[H])C([H])([H])C([H])(C([H])([H])[H])C([H])([H])[H]


 53 52  0  0  0  0  0  0  0  0999 V2000
    7.4912   49.1795  130.8036 C   0  0  0  0  0  0  0  0  0  0  0  0
    7.9698   47.8718  131.2266 N   0  0  0  0  0  0  0  0  0  0  0  0
    7.2588   46.6745  131.0495 C   0  0  0  0  0  0  0  0  0  0  0  0
    6.1373   46.7459  130.4848 O   0  0  0  0  0  0  0  0  0  0  0  0
    8.9025   47.8467  131.6847 H   0  0  0  0  0  0  0  0  0  0  0  0
    7.7749   45.3943  131.4967 C   0  0  0  0  0  0  0  0  0  0  0  0
    9.1418   45.1965  130.9774 N   0  0  0  0  0  0  0  0  0  0  0  0
    9.4242   45.3921  129.6138 C   0  0  0  0  0  0  0  0  0  0  0  0
    8.5105   45.7580  128.7857 O   0  0  0  0  0  0  0  0  0  0  0  0
    9.8690   44.9160  131.6345 H   0  0  0  0  0  0  0  0  0  0  0  0
   10.7939   45.1755  129.1071 C   0  0  0  0  0  0  0  0  0  0  0  0
   11.6904   44.9159  130.2079 N   0  0  0  0  0  0  0  0  0  0  0  0
   11.6721   43.8532  131.0964 C   0  0  0  0  0  0  0  0  0  0  0  0
   10.7952   42.9597  130.9828 O   0  0  0  0  0  0  0  0  0  0  0  0
   12.4463   45.6536  130.3174 H   0  0  0  0  0  0  0  0  0  0  0  0
   12.6620   43.7401  132.1776 C   0  0  0  0  0  0  0  0  0  0  0  0
   12.3475   44.5876  133.3938 C   0  0  0  0  0  0  0  0  0  0  0  0
   11.5998   43.7955  134.4320 C   0  0  0  0  0  0  0  0  0  0  0  0
   11.6679   45.8742  133.0645 C   0  0  0  0  0  0  0  0  0  0  0  0
   10.9002   44.2133  127.9869 C   0  0  0  0  0  0  0  0  0  0  0  0
    9.9047   43.0763  128.2109 C   0  0  0  0  0  0  0  0  0  0  0  0
   10.7894   44.7819  126.6125 C   0  0  0  0  0  0  0  0  0  0  0  0
    7.6776   45.0333  132.9230 C   0  0  0  0  0  0  0  0  0  0  0  0
    8.1649   43.6657  133.3158 C   0  0  0  0  0  0  0  0  0  0  0  0
    8.1528   46.0431  133.9171 C   0  0  0  0  0  0  0  0  0  0  0  0
    6.9218   49.1339  129.4507 C   0  0  0  0  0  0  0  0  0  0  0  0
    5.5531   49.5540  129.4897 O   0  0  0  0  0  0  0  0  0  0  0  0
    5.5779   50.5486  129.4444 H   0  0  0  0  0  0  0  0  0  0  0  0
    7.5872   50.0395  128.4866 C   0  0  0  0  0  0  0  0  0  0  0  0
    7.3324   52.2945  127.4179 N   0  0  0  0  0  0  0  0  0  0  0  0
    7.1474   51.4461  128.5703 C   0  0  0  0  0  0  0  0  0  0  0  0
    6.6212   52.0151  129.5514 O   0  0  0  0  0  0  0  0  0  0  0  0
    7.7601   51.8892  126.5796 H   0  0  0  0  0  0  0  0  0  0  0  0
    6.9237   53.6634  127.4578 C   0  0  0  0  0  0  0  0  0  0  0  0
    7.8807   54.4868  128.3290 C   0  0  0  0  0  0  0  0  0  0  0  0
    5.7431   54.2647  125.2776 N   0  0  0  0  0  0  0  0  0  0  0  0
    6.8760   54.2964  126.1287 C   0  0  0  0  0  0  0  0  0  0  0  0
    7.9222   54.8958  125.7460 O   0  0  0  0  0  0  0  0  0  0  0  0
    4.9128   53.7255  125.7220 H   0  0  0  0  0  0  0  0  0  0  0  0
    5.5956   54.8234  123.9857 C   0  0  0  0  0  0  0  0  0  0  0  0
    4.1503   54.8102  123.5926 C   0  0  0  0  0  0  0  0  0  0  0  0
    3.6357   53.9889  122.5689 N   0  0  0  0  0  0  0  0  0  0  0  0
    3.3682   55.5695  124.2106 O   0  0  0  0  0  0  0  0  0  0  0  0
    3.3155   54.3747  121.6325 H   0  0  0  0  0  0  0  0  0  0  0  0
    3.5531   52.9608  122.7077 H   0  0  0  0  0  0  0  0  0  0  0  0
    6.3725   54.2913  122.8467 C   0  0  0  0  0  0  0  0  0  0  0  0
    8.6513   53.2837  122.8325 C   0  0  0  0  0  0  0  0  0  0  0  0
    7.8370   54.5874  122.8037 C   0  0  0  0  0  0  0  0  0  0  0  0
    8.2612   55.4609  121.6655 C   0  0  0  0  0  0  0  0  0  0  0  0
    8.5715   50.1972  131.0171 C   0  0  0  0  0  0  0  0  0  0  0  0
    9.9385   49.7716  131.3157 C   0  0  0  0  0  0  0  0  0  0  0  0
   10.5049   48.6897  130.4304 C   0  0  0  0  0  0  0  0  0  0  0  0
    9.9255   49.2178  132.7561 C   0  0  0  0  0  0  0  0  0  0  0  0
 47 48  1  0  0  0
 48 49  1  0  0  0
 48 46  1  0  0  0
 46 40  1  0  0  0
 40 36  1  0  0  0
 36 37  1  0  0  0
 37 38  2  0  0  0
 37 34  1  0  0  0
 34 35  1  0  0  0
 34 30  1  0  0  0
 30 31  1  0  0  0
 31 32  2  0  0  0
 31 29  1  0  0  0
 29 26  1  0  0  0
 26 27  1  0  0  0
 26  1  1  0  0  0
  1 50  1  0  0  0
 50 51  1  0  0  0
 51 52  1  0  0  0
 51 53  1  0  0  0
  1  2  1  0  0  0
  2  3  1  0  0  0
  3  4  2  0  0  0
  3  6  1  0  0  0
  6  7  1  0  0  0
  7  8  1  0  0  0
  8  9  2  0  0  0
  8 11  1  0  0  0
 11 12  1  0  0  0
 12 13  1  0  0  0
 13 14  2  0  0  0
 13 16  1  0  0  0
 16 17  1  0  0  0
 17 18  1  0  0  0
 17 19  1  0  0  0
 11 20  1  0  0  0
 20 21  1  0  0  0
 20 22  1  0  0  0
  6 23  1  0  0  0
 23 24  1  0  0  0
 23 25  1  0  0  0
 40 41  1  0  0  0
 41 42  1  0  0  0
 41 43  2  0  0  0
 36 39  1  0  0  0
 30 33  1  0  0  0
 27 28  1  0  0  0
  2  5  1  0  0  0
  7 10  1  0  0  0
 12 15  1  0  0  0
 42 44  1  0  0  0
 42 45  1  0  0  0
M  END
> <minimizedAffinity>
-1.60041

> <CNNscore>
0.3788869977

> <CNNaffinity>
7.6003465652

> <CNN_VS>
2.8796725273

> <CNNaffinity_variance>
0.1908030361

$$$$
[H]O[C@@]([H])(C([H])([H])C(=O)N([H])[C@]([H])(C(=O)N([H])[C@]([H])(C(=O)N([H])[H])C([H])([H])C([H])(C([H])([H])[H])C([H])([H])[H])C([H])([H])[H])[C@@]([H])(N([H])C(=O)[C@@]([H])(N([H])C(=O)[C@@]([H])(N([H])C(=O)C([H])([H])C([H])(C([H])([H])[H])C([H])([H])[H])C([H])(C([H])([H])[H])C([H])([H])[H])C([H])(C([H])([H])[H])C([H])([H])[H])C([H])([H])C([H])(C([H])([H])[H])C([H])([H])[H]


 53 52  0  0  0  0  0  0  0  0999 V2000
    7.6711   47.0196  129.1501 C   0  0  0  0  0  0  0  0  0  0  0  0
    8.6491   46.0971  129.7076 N   0  0  0  0  0  0  0  0  0  0  0  0
    9.7448   45.5822  128.9973 C   0  0  0  0  0  0  0  0  0  0  0  0
    9.8842   45.9499  127.8027 O   0  0  0  0  0  0  0  0  0  0  0  0
    8.5084   45.8177  130.6988 H   0  0  0  0  0  0  0  0  0  0  0  0
   10.6893   44.6572  129.5951 C   0  0  0  0  0  0  0  0  0  0  0  0
   10.7217   44.8501  131.0577 N   0  0  0  0  0  0  0  0  0  0  0  0
   11.9467   44.8877  131.7472 C   0  0  0  0  0  0  0  0  0  0  0  0
   13.0681   44.7682  131.1288 O   0  0  0  0  0  0  0  0  0  0  0  0
    9.8340   44.9547  131.5478 H   0  0  0  0  0  0  0  0  0  0  0  0
   11.9614   45.0664  133.2127 C   0  0  0  0  0  0  0  0  0  0  0  0
   10.7294   45.6805  133.6459 N   0  0  0  0  0  0  0  0  0  0  0  0
   10.0986   46.7982  133.1243 C   0  0  0  0  0  0  0  0  0  0  0  0
   10.6040   47.3988  132.1424 O   0  0  0  0  0  0  0  0  0  0  0  0
   10.2789   45.1838  134.4692 H   0  0  0  0  0  0  0  0  0  0  0  0
    8.8403   47.3040  133.6922 C   0  0  0  0  0  0  0  0  0  0  0  0
    8.7211   48.8147  133.6809 C   0  0  0  0  0  0  0  0  0  0  0  0
   10.0355   49.4630  133.3400 C   0  0  0  0  0  0  0  0  0  0  0  0
    8.1189   49.3746  134.9256 C   0  0  0  0  0  0  0  0  0  0  0  0
   12.3548   43.8655  133.9840 C   0  0  0  0  0  0  0  0  0  0  0  0
   13.5895   44.1939  134.8216 C   0  0  0  0  0  0  0  0  0  0  0  0
   11.2858   43.2249  134.8035 C   0  0  0  0  0  0  0  0  0  0  0  0
   10.6283   43.2282  129.2364 C   0  0  0  0  0  0  0  0  0  0  0  0
   10.0046   42.2984  130.2406 C   0  0  0  0  0  0  0  0  0  0  0  0
   10.1425   42.8885  127.8644 C   0  0  0  0  0  0  0  0  0  0  0  0
    8.2810   48.3112  128.8091 C   0  0  0  0  0  0  0  0  0  0  0  0
    7.4768   48.9804  127.8309 O   0  0  0  0  0  0  0  0  0  0  0  0
    6.7676   49.4528  128.3465 H   0  0  0  0  0  0  0  0  0  0  0  0
    8.3805   49.2499  129.9499 C   0  0  0  0  0  0  0  0  0  0  0  0
    7.5026   51.1473  128.5641 N   0  0  0  0  0  0  0  0  0  0  0  0
    7.5292   50.4494  129.8267 C   0  0  0  0  0  0  0  0  0  0  0  0
    6.8074   50.9567  130.7126 O   0  0  0  0  0  0  0  0  0  0  0  0
    8.0737   50.7832  127.7953 H   0  0  0  0  0  0  0  0  0  0  0  0
    6.6944   52.3151  128.4030 C   0  0  0  0  0  0  0  0  0  0  0  0
    6.9109   53.2859  129.5707 C   0  0  0  0  0  0  0  0  0  0  0  0
    6.2567   54.1991  126.7395 N   0  0  0  0  0  0  0  0  0  0  0  0
    6.9726   53.0492  127.1568 C   0  0  0  0  0  0  0  0  0  0  0  0
    7.9095   52.6054  126.4319 O   0  0  0  0  0  0  0  0  0  0  0  0
    5.4844   54.4795  127.4483 H   0  0  0  0  0  0  0  0  0  0  0  0
    6.4308   54.9668  125.5633 C   0  0  0  0  0  0  0  0  0  0  0  0
    5.0959   55.2609  124.9510 C   0  0  0  0  0  0  0  0  0  0  0  0
    4.8126   55.0633  123.5843 N   0  0  0  0  0  0  0  0  0  0  0  0
    4.1929   55.7032  125.6989 O   0  0  0  0  0  0  0  0  0  0  0  0
    4.6834   55.8691  122.9044 H   0  0  0  0  0  0  0  0  0  0  0  0
    4.7193   54.1015  123.1977 H   0  0  0  0  0  0  0  0  0  0  0  0
    7.3216   54.4917  124.4842 C   0  0  0  0  0  0  0  0  0  0  0  0
    9.4368   55.7807  124.2136 C   0  0  0  0  0  0  0  0  0  0  0  0
    8.0265   55.5202  123.6597 C   0  0  0  0  0  0  0  0  0  0  0  0
    8.0718   55.2181  122.1950 C   0  0  0  0  0  0  0  0  0  0  0  0
    6.4779   47.0863  130.0555 C   0  0  0  0  0  0  0  0  0  0  0  0
    5.2003   47.5950  129.5574 C   0  0  0  0  0  0  0  0  0  0  0  0
    3.9885   46.7462  129.8509 C   0  0  0  0  0  0  0  0  0  0  0  0
    5.3281   47.6868  128.0222 C   0  0  0  0  0  0  0  0  0  0  0  0
 47 48  1  0  0  0
 48 49  1  0  0  0
 48 46  1  0  0  0
 46 40  1  0  0  0
 40 36  1  0  0  0
 36 37  1  0  0  0
 37 38  2  0  0  0
 37 34  1  0  0  0
 34 35  1  0  0  0
 34 30  1  0  0  0
 30 31  1  0  0  0
 31 32  2  0  0  0
 31 29  1  0  0  0
 29 26  1  0  0  0
 26 27  1  0  0  0
 26  1  1  0  0  0
  1 50  1  0  0  0
 50 51  1  0  0  0
 51 52  1  0  0  0
 51 53  1  0  0  0
  1  2  1  0  0  0
  2  3  1  0  0  0
  3  4  2  0  0  0
  3  6  1  0  0  0
  6  7  1  0  0  0
  7  8  1  0  0  0
  8  9  2  0  0  0
  8 11  1  0  0  0
 11 12  1  0  0  0
 12 13  1  0  0  0
 13 14  2  0  0  0
 13 16  1  0  0  0
 16 17  1  0  0  0
 17 18  1  0  0  0
 17 19  1  0  0  0
 11 20  1  0  0  0
 20 21  1  0  0  0
 20 22  1  0  0  0
  6 23  1  0  0  0
 23 24  1  0  0  0
 23 25  1  0  0  0
 40 41  1  0  0  0
 41 42  1  0  0  0
 41 43  2  0  0  0
 36 39  1  0  0  0
 30 33  1  0  0  0
 27 28  1  0  0  0
  2  5  1  0  0  0
  7 10  1  0  0  0
 12 15  1  0  0  0
 42 44  1  0  0  0
 42 45  1  0  0  0
M  END
> <minimizedAffinity>
4.07990

> <CNNscore>
0.3596995175

> <CNNaffinity>
7.4942030907

> <CNN_VS>
2.6956613064

> <CNNaffinity_variance>
0.4605091214

$$$$
[H]O[C@@]([H])(C([H])([H])C(=O)N([H])[C@]([H])(C(=O)N([H])[C@]([H])(C(=O)N([H])[H])C([H])([H])C([H])(C([H])([H])[H])C([H])([H])[H])C([H])([H])[H])[C@@]([H])(N([H])C(=O)[C@@]([H])(N([H])C(=O)[C@@]([H])(N([H])C(=O)C([H])([H])C([H])(C([H])([H])[H])C([H])([H])[H])C([H])(C([H])([H])[H])C([H])([H])[H])C([H])(C([H])([H])[H])C([H])([H])[H])C([H])([H])C([H])(C([H])([H])[H])C([H])([H])[H]


 53 52  0  0  0  0  0  0  0  0999 V2000
    6.2854   48.0554  129.5095 C   0  0  0  0  0  0  0  0  0  0  0  0
    7.2372   48.4396  130.5412 N   0  0  0  0  0  0  0  0  0  0  0  0
    7.7080   47.5768  131.5433 C   0  0  0  0  0  0  0  0  0  0  0  0
    7.2758   46.3957  131.5397 O   0  0  0  0  0  0  0  0  0  0  0  0
    7.5792   49.4208  130.5125 H   0  0  0  0  0  0  0  0  0  0  0  0
    8.6520   48.0095  132.5567 C   0  0  0  0  0  0  0  0  0  0  0  0
    9.4155   46.8503  133.0574 N   0  0  0  0  0  0  0  0  0  0  0  0
    9.3811   46.5059  134.4204 C   0  0  0  0  0  0  0  0  0  0  0  0
    8.6799   47.1773  135.2640 O   0  0  0  0  0  0  0  0  0  0  0  0
    9.9639   46.3115  132.3880 H   0  0  0  0  0  0  0  0  0  0  0  0
   10.1627   45.3522  134.9081 C   0  0  0  0  0  0  0  0  0  0  0  0
    9.8015   44.1659  134.1700 N   0  0  0  0  0  0  0  0  0  0  0  0
    8.5567   43.8069  133.6793 C   0  0  0  0  0  0  0  0  0  0  0  0
    7.5727   44.5690  133.8562 O   0  0  0  0  0  0  0  0  0  0  0  0
   10.6200   43.5110  134.0001 H   0  0  0  0  0  0  0  0  0  0  0  0
    8.3542   42.5476  132.9481 C   0  0  0  0  0  0  0  0  0  0  0  0
    9.0864   42.4783  131.6232 C   0  0  0  0  0  0  0  0  0  0  0  0
    8.1811   41.9909  130.5245 C   0  0  0  0  0  0  0  0  0  0  0  0
   10.3639   41.7106  131.6873 C   0  0  0  0  0  0  0  0  0  0  0  0
   11.6201   45.5878  135.0194 C   0  0  0  0  0  0  0  0  0  0  0  0
   12.3534   44.2573  134.8587 C   0  0  0  0  0  0  0  0  0  0  0  0
   12.1902   46.6433  134.1331 C   0  0  0  0  0  0  0  0  0  0  0  0
    9.5303   49.1617  132.2825 C   0  0  0  0  0  0  0  0  0  0  0  0
   10.2081   49.7998  133.4637 C   0  0  0  0  0  0  0  0  0  0  0  0
   10.5024   49.0264  131.1552 C   0  0  0  0  0  0  0  0  0  0  0  0
    6.9651   47.5573  128.3069 C   0  0  0  0  0  0  0  0  0  0  0  0
    6.6457   48.3960  127.1907 O   0  0  0  0  0  0  0  0  0  0  0  0
    7.2869   49.1567  127.2364 H   0  0  0  0  0  0  0  0  0  0  0  0
    8.4426   47.5692  128.4018 C   0  0  0  0  0  0  0  0  0  0  0  0
    8.6026   45.1026  127.9750 N   0  0  0  0  0  0  0  0  0  0  0  0
    9.0423   46.2582  128.7188 C   0  0  0  0  0  0  0  0  0  0  0  0
    9.9099   46.0151  129.5855 O   0  0  0  0  0  0  0  0  0  0  0  0
    7.8910   45.2334  127.2495 H   0  0  0  0  0  0  0  0  0  0  0  0
    9.1550   43.8140  128.2525 C   0  0  0  0  0  0  0  0  0  0  0  0
    8.8500   42.8388  127.1085 C   0  0  0  0  0  0  0  0  0  0  0  0
   11.2476   43.9205  129.7079 N   0  0  0  0  0  0  0  0  0  0  0  0
   10.6154   43.8344  128.4422 C   0  0  0  0  0  0  0  0  0  0  0  0
   11.3259   43.7727  127.3974 O   0  0  0  0  0  0  0  0  0  0  0  0
   10.5304   43.9629  130.5211 H   0  0  0  0  0  0  0  0  0  0  0  0
   12.6316   43.9612  130.0006 C   0  0  0  0  0  0  0  0  0  0  0  0
   12.8334   44.3691  131.4276 C   0  0  0  0  0  0  0  0  0  0  0  0
   12.9074   45.7140  131.8436 N   0  0  0  0  0  0  0  0  0  0  0  0
   12.9398   43.4628  132.2865 O   0  0  0  0  0  0  0  0  0  0  0  0
   13.8139   46.1644  132.1653 H   0  0  0  0  0  0  0  0  0  0  0  0
   12.0565   46.3133  131.8475 H   0  0  0  0  0  0  0  0  0  0  0  0
   13.5488   44.7706  129.1714 C   0  0  0  0  0  0  0  0  0  0  0  0
   15.2449   43.1011  128.4333 C   0  0  0  0  0  0  0  0  0  0  0  0
   15.0009   44.4165  129.1908 C   0  0  0  0  0  0  0  0  0  0  0  0
   15.9107   45.4972  128.6979 C   0  0  0  0  0  0  0  0  0  0  0  0
    5.3144   49.1760  129.2867 C   0  0  0  0  0  0  0  0  0  0  0  0
    5.7279   50.5636  129.4933 C   0  0  0  0  0  0  0  0  0  0  0  0
    7.2136   50.8231  129.4730 C   0  0  0  0  0  0  0  0  0  0  0  0
    5.2151   50.9756  130.8894 C   0  0  0  0  0  0  0  0  0  0  0  0
 47 48  1  0  0  0
 48 49  1  0  0  0
 48 46  1  0  0  0
 46 40  1  0  0  0
 40 36  1  0  0  0
 36 37  1  0  0  0
 37 38  2  0  0  0
 37 34  1  0  0  0
 34 35  1  0  0  0
 34 30  1  0  0  0
 30 31  1  0  0  0
 31 32  2  0  0  0
 31 29  1  0  0  0
 29 26  1  0  0  0
 26 27  1  0  0  0
 26  1  1  0  0  0
  1 50  1  0  0  0
 50 51  1  0  0  0
 51 52  1  0  0  0
 51 53  1  0  0  0
  1  2  1  0  0  0
  2  3  1  0  0  0
  3  4  2  0  0  0
  3  6  1  0  0  0
  6  7  1  0  0  0
  7  8  1  0  0  0
  8  9  2  0  0  0
  8 11  1  0  0  0
 11 12  1  0  0  0
 12 13  1  0  0  0
 13 14  2  0  0  0
 13 16  1  0  0  0
 16 17  1  0  0  0
 17 18  1  0  0  0
 17 19  1  0  0  0
 11 20  1  0  0  0
 20 21  1  0  0  0
 20 22  1  0  0  0
  6 23  1  0  0  0
 23 24  1  0  0  0
 23 25  1  0  0  0
 40 41  1  0  0  0
 41 42  1  0  0  0
 41 43  2  0  0  0
 36 39  1  0  0  0
 30 33  1  0  0  0
 27 28  1  0  0  0
  2  5  1  0  0  0
  7 10  1  0  0  0
 12 15  1  0  0  0
 42 44  1  0  0  0
 42 45  1  0  0  0
M  END
> <minimizedAffinity>
7.79628

> <CNNscore>
0.3398331404

> <CNNaffinity>
7.7938308716

> <CNN_VS>
2.6486020088

> <CNNaffinity_variance>
0.2469933331

$$$$
[H]O[C@@]([H])(C([H])([H])C(=O)N([H])[C@]([H])(C(=O)N([H])[C@]([H])(C(=O)N([H])[H])C([H])([H])C([H])(C([H])([H])[H])C([H])([H])[H])C([H])([H])[H])[C@@]([H])(N([H])C(=O)[C@@]([H])(N([H])C(=O)[C@@]([H])(N([H])C(=O)C([H])([H])C([H])(C([H])([H])[H])C([H])([H])[H])C([H])(C([H])([H])[H])C([H])([H])[H])C([H])(C([H])([H])[H])C([H])([H])[H])C([H])([H])C([H])(C([H])([H])[H])C([H])([H])[H]


 53 52  0  0  0  0  0  0  0  0999 V2000
    8.0662   49.6989  130.6700 C   0  0  0  0  0  0  0  0  0  0  0  0
    7.7944   48.4327  131.3340 N   0  0  0  0  0  0  0  0  0  0  0  0
    8.7548   47.4327  131.5531 C   0  0  0  0  0  0  0  0  0  0  0  0
    9.9245   47.6556  131.1484 O   0  0  0  0  0  0  0  0  0  0  0  0
    6.8194   48.2824  131.6615 H   0  0  0  0  0  0  0  0  0  0  0  0
    8.4328   46.1815  132.2134 C   0  0  0  0  0  0  0  0  0  0  0  0
    9.4320   45.1558  131.8574 N   0  0  0  0  0  0  0  0  0  0  0  0
    9.1877   43.7967  132.1229 C   0  0  0  0  0  0  0  0  0  0  0  0
    8.0902   43.4070  132.6688 O   0  0  0  0  0  0  0  0  0  0  0  0
   10.2981   45.4624  131.4157 H   0  0  0  0  0  0  0  0  0  0  0  0
   10.2041   42.7841  131.7742 C   0  0  0  0  0  0  0  0  0  0  0  0
   10.5351   42.8815  130.3729 N   0  0  0  0  0  0  0  0  0  0  0  0
    9.6857   43.1252  129.3060 C   0  0  0  0  0  0  0  0  0  0  0  0
    8.4584   43.3019  129.5131 O   0  0  0  0  0  0  0  0  0  0  0  0
   11.5694   42.7450  130.1748 H   0  0  0  0  0  0  0  0  0  0  0  0
   10.1864   43.1858  127.9250 C   0  0  0  0  0  0  0  0  0  0  0  0
   11.0342   44.4064  127.6286 C   0  0  0  0  0  0  0  0  0  0  0  0
   11.6069   44.9921  128.8908 C   0  0  0  0  0  0  0  0  0  0  0  0
   10.3371   45.4285  126.7949 C   0  0  0  0  0  0  0  0  0  0  0  0
   11.3735   42.7357  132.6808 C   0  0  0  0  0  0  0  0  0  0  0  0
   12.5481   43.4528  132.0174 C   0  0  0  0  0  0  0  0  0  0  0  0
   11.1506   43.2145  134.0757 C   0  0  0  0  0  0  0  0  0  0  0  0
    8.1436   46.1800  133.6593 C   0  0  0  0  0  0  0  0  0  0  0  0
    7.1612   45.1562  134.1579 C   0  0  0  0  0  0  0  0  0  0  0  0
    9.3112   46.2539  134.5895 C   0  0  0  0  0  0  0  0  0  0  0  0
    7.8925   49.5936  129.2156 C   0  0  0  0  0  0  0  0  0  0  0  0
    7.6697   48.2255  128.8549 O   0  0  0  0  0  0  0  0  0  0  0  0
    6.6938   48.0718  128.9812 H   0  0  0  0  0  0  0  0  0  0  0  0
    6.7232   50.3368  128.6935 C   0  0  0  0  0  0  0  0  0  0  0  0
    7.0004   52.4475  127.3668 N   0  0  0  0  0  0  0  0  0  0  0  0
    6.9021   51.8015  128.6533 C   0  0  0  0  0  0  0  0  0  0  0  0
    6.9874   52.5784  129.6292 O   0  0  0  0  0  0  0  0  0  0  0  0
    6.9390   51.8664  126.5251 H   0  0  0  0  0  0  0  0  0  0  0  0
    7.1774   53.8632  127.2829 C   0  0  0  0  0  0  0  0  0  0  0  0
    8.5511   54.2007  126.6898 C   0  0  0  0  0  0  0  0  0  0  0  0
    4.9212   53.9399  126.0946 N   0  0  0  0  0  0  0  0  0  0  0  0
    6.1589   54.5299  126.4537 C   0  0  0  0  0  0  0  0  0  0  0  0
    6.4300   55.6971  126.0483 O   0  0  0  0  0  0  0  0  0  0  0  0
    4.8086   52.9426  126.5072 H   0  0  0  0  0  0  0  0  0  0  0  0
    3.8852   54.4819  125.2971 C   0  0  0  0  0  0  0  0  0  0  0  0
    2.6531   54.6666  126.1285 C   0  0  0  0  0  0  0  0  0  0  0  0
    1.7009   53.6479  126.3355 N   0  0  0  0  0  0  0  0  0  0  0  0
    2.4691   55.7851  126.6628 O   0  0  0  0  0  0  0  0  0  0  0  0
    0.7354   53.6687  125.8933 H   0  0  0  0  0  0  0  0  0  0  0  0
    1.9238   52.8316  126.9415 H   0  0  0  0  0  0  0  0  0  0  0  0
    3.4803   53.8158  124.0416 C   0  0  0  0  0  0  0  0  0  0  0  0
    5.7114   54.0687  122.9614 C   0  0  0  0  0  0  0  0  0  0  0  0
    4.1903   54.2066  122.7856 C   0  0  0  0  0  0  0  0  0  0  0  0
    3.7238   53.4883  121.5589 C   0  0  0  0  0  0  0  0  0  0  0  0
    9.3940   50.2248  131.1267 C   0  0  0  0  0  0  0  0  0  0  0  0
    9.6737   50.3857  132.5532 C   0  0  0  0  0  0  0  0  0  0  0  0
   10.8752   49.6425  133.0816 C   0  0  0  0  0  0  0  0  0  0  0  0
    8.4402   49.8492  133.3098 C   0  0  0  0  0  0  0  0  0  0  0  0
 47 48  1  0  0  0
 48 49  1  0  0  0
 48 46  1  0  0  0
 46 40  1  0  0  0
 40 36  1  0  0  0
 36 37  1  0  0  0
 37 38  2  0  0  0
 37 34  1  0  0  0
 34 35  1  0  0  0
 34 30  1  0  0  0
 30 31  1  0  0  0
 31 32  2  0  0  0
 31 29  1  0  0  0
 29 26  1  0  0  0
 26 27  1  0  0  0
 26  1  1  0  0  0
  1 50  1  0  0  0
 50 51  1  0  0  0
 51 52  1  0  0  0
 51 53  1  0  0  0
  1  2  1  0  0  0
  2  3  1  0  0  0
  3  4  2  0  0  0
  3  6  1  0  0  0
  6  7  1  0  0  0
  7  8  1  0  0  0
  8  9  2  0  0  0
  8 11  1  0  0  0
 11 12  1  0  0  0
 12 13  1  0  0  0
 13 14  2  0  0  0
 13 16  1  0  0  0
 16 17  1  0  0  0
 17 18  1  0  0  0
 17 19  1  0  0  0
 11 20  1  0  0  0
 20 21  1  0  0  0
 20 22  1  0  0  0
  6 23  1  0  0  0
 23 24  1  0  0  0
 23 25  1  0  0  0
 40 41  1  0  0  0
 41 42  1  0  0  0
 41 43  2  0  0  0
 36 39  1  0  0  0
 30 33  1  0  0  0
 27 28  1  0  0  0
  2  5  1  0  0  0
  7 10  1  0  0  0
 12 15  1  0  0  0
 42 44  1  0  0  0
 42 45  1  0  0  0
M  END
> <minimizedAffinity>
0.31680

> <CNNscore>
0.3390924633

> <CNNaffinity>
7.4545335770

> <CNN_VS>
2.5277762413

> <CNNaffinity_variance>
0.3081704080

$$$$
[H]O[C@@]([H])(C([H])([H])C(=O)N([H])[C@]([H])(C(=O)N([H])[C@]([H])(C(=O)N([H])[H])C([H])([H])C([H])(C([H])([H])[H])C([H])([H])[H])C([H])([H])[H])[C@@]([H])(N([H])C(=O)[C@@]([H])(N([H])C(=O)[C@@]([H])(N([H])C(=O)C([H])([H])C([H])(C([H])([H])[H])C([H])([H])[H])C([H])(C([H])([H])[H])C([H])([H])[H])C([H])(C([H])([H])[H])C([H])([H])[H])C([H])([H])C([H])(C([H])([H])[H])C([H])([H])[H]


 53 52  0  0  0  0  0  0  0  0999 V2000
    7.9295   50.1032  130.2180 C   0  0  0  0  0  0  0  0  0  0  0  0
    7.5777   48.6910  130.2276 N   0  0  0  0  0  0  0  0  0  0  0  0
    8.3329   47.6839  129.6065 C   0  0  0  0  0  0  0  0  0  0  0  0
    9.3820   48.0338  129.0076 O   0  0  0  0  0  0  0  0  0  0  0  0
    6.7081   48.4347  130.7360 H   0  0  0  0  0  0  0  0  0  0  0  0
    7.9358   46.2887  129.6366 C   0  0  0  0  0  0  0  0  0  0  0  0
    8.9198   45.5046  130.4076 N   0  0  0  0  0  0  0  0  0  0  0  0
    9.4283   44.2963  129.8987 C   0  0  0  0  0  0  0  0  0  0  0  0
    9.0640   43.8465  128.7502 O   0  0  0  0  0  0  0  0  0  0  0  0
    9.2167   45.8650  131.3138 H   0  0  0  0  0  0  0  0  0  0  0  0
   10.4009   43.5160  130.6892 C   0  0  0  0  0  0  0  0  0  0  0  0
   11.1020   44.3850  131.6035 N   0  0  0  0  0  0  0  0  0  0  0  0
   12.4223   44.8008  131.5494 C   0  0  0  0  0  0  0  0  0  0  0  0
   13.1593   44.4173  130.6060 O   0  0  0  0  0  0  0  0  0  0  0  0
   10.4958   44.7296  132.4044 H   0  0  0  0  0  0  0  0  0  0  0  0
   12.9895   45.6894  132.5743 C   0  0  0  0  0  0  0  0  0  0  0  0
   12.2479   45.6605  133.8954 C   0  0  0  0  0  0  0  0  0  0  0  0
   11.6011   44.3221  134.1287 C   0  0  0  0  0  0  0  0  0  0  0  0
   11.2890   46.7907  134.0658 C   0  0  0  0  0  0  0  0  0  0  0  0
    9.8590   42.2834  131.3050 C   0  0  0  0  0  0  0  0  0  0  0  0
   11.0127   41.4690  131.8876 C   0  0  0  0  0  0  0  0  0  0  0  0
    8.7572   42.4660  132.2936 C   0  0  0  0  0  0  0  0  0  0  0  0
    6.5520   45.9381  130.0056 C   0  0  0  0  0  0  0  0  0  0  0  0
    6.2719   45.7094  131.4655 C   0  0  0  0  0  0  0  0  0  0  0  0
    5.4562   46.7572  129.4039 C   0  0  0  0  0  0  0  0  0  0  0  0
    7.7516   50.6945  128.8857 C   0  0  0  0  0  0  0  0  0  0  0  0
    7.5306   49.6567  127.9236 O   0  0  0  0  0  0  0  0  0  0  0  0
    6.5555   49.4583  127.9643 H   0  0  0  0  0  0  0  0  0  0  0  0
    6.5791   51.5921  128.7769 C   0  0  0  0  0  0  0  0  0  0  0  0
    7.0054   53.3057  126.9954 N   0  0  0  0  0  0  0  0  0  0  0  0
    6.9088   52.9801  128.3978 C   0  0  0  0  0  0  0  0  0  0  0  0
    7.1277   53.9408  129.1674 O   0  0  0  0  0  0  0  0  0  0  0  0
    6.8381   52.5618  126.3110 H   0  0  0  0  0  0  0  0  0  0  0  0
    7.3257   54.6367  126.5851 C   0  0  0  0  0  0  0  0  0  0  0  0
    8.8224   54.9140  126.7746 C   0  0  0  0  0  0  0  0  0  0  0  0
    5.9539   54.2604  124.4674 N   0  0  0  0  0  0  0  0  0  0  0  0
    6.9985   54.9066  125.1746 C   0  0  0  0  0  0  0  0  0  0  0  0
    7.7083   55.7688  124.5806 O   0  0  0  0  0  0  0  0  0  0  0  0
    5.4191   53.5487  125.0879 H   0  0  0  0  0  0  0  0  0  0  0  0
    5.5658   54.4326  123.1173 C   0  0  0  0  0  0  0  0  0  0  0  0
    4.1093   54.1169  122.9671 C   0  0  0  0  0  0  0  0  0  0  0  0
    3.5510   53.5906  121.7845 N   0  0  0  0  0  0  0  0  0  0  0  0
    3.3588   54.3341  123.9468 O   0  0  0  0  0  0  0  0  0  0  0  0
    2.9263   54.1620  121.1431 H   0  0  0  0  0  0  0  0  0  0  0  0
    3.7395   52.6063  121.5038 H   0  0  0  0  0  0  0  0  0  0  0  0
    6.2880   53.7316  122.0353 C   0  0  0  0  0  0  0  0  0  0  0  0
    8.0362   55.4936  121.8164 C   0  0  0  0  0  0  0  0  0  0  0  0
    7.7550   53.9844  121.8995 C   0  0  0  0  0  0  0  0  0  0  0  0
    8.5971   53.3381  122.9539 C   0  0  0  0  0  0  0  0  0  0  0  0
    9.2871   50.2816  130.8291 C   0  0  0  0  0  0  0  0  0  0  0  0
    9.6453   49.5672  132.0540 C   0  0  0  0  0  0  0  0  0  0  0  0
    8.6490   48.5448  132.5412 C   0  0  0  0  0  0  0  0  0  0  0  0
    9.7821   50.6310  133.1636 C   0  0  0  0  0  0  0  0  0  0  0  0
 47 48  1  0  0  0
 48 49  1  0  0  0
 48 46  1  0  0  0
 46 40  1  0  0  0
 40 36  1  0  0  0
 36 37  1  0  0  0
 37 38  2  0  0  0
 37 34  1  0  0  0
 34 35  1  0  0  0
 34 30  1  0  0  0
 30 31  1  0  0  0
 31 32  2  0  0  0
 31 29  1  0  0  0
 29 26  1  0  0  0
 26 27  1  0  0  0
 26  1  1  0  0  0
  1 50  1  0  0  0
 50 51  1  0  0  0
 51 52  1  0  0  0
 51 53  1  0  0  0
  1  2  1  0  0  0
  2  3  1  0  0  0
  3  4  2  0  0  0
  3  6  1  0  0  0
  6  7  1  0  0  0
  7  8  1  0  0  0
  8  9  2  0  0  0
  8 11  1  0  0  0
 11 12  1  0  0  0
 12 13  1  0  0  0
 13 14  2  0  0  0
 13 16  1  0  0  0
 16 17  1  0  0  0
 17 18  1  0  0  0
 17 19  1  0  0  0
 11 20  1  0  0  0
 20 21  1  0  0  0
 20 22  1  0  0  0
  6 23  1  0  0  0
 23 24  1  0  0  0
 23 25  1  0  0  0
 40 41  1  0  0  0
 41 42  1  0  0  0
 41 43  2  0  0  0
 36 39  1  0  0  0
 30 33  1  0  0  0
 27 28  1  0  0  0
  2  5  1  0  0  0
  7 10  1  0  0  0
 12 15  1  0  0  0
 42 44  1  0  0  0
 42 45  1  0  0  0
M  END
> <minimizedAffinity>
0.20712

> <CNNscore>
0.3309273124

> <CNNaffinity>
7.3231821060

> <CNN_VS>
2.4234409332

> <CNNaffinity_variance>
0.3228785992

$$$$
[H]O[C@@]([H])(C([H])([H])C(=O)N([H])[C@]([H])(C(=O)N([H])[C@]([H])(C(=O)N([H])[H])C([H])([H])C([H])(C([H])([H])[H])C([H])([H])[H])C([H])([H])[H])[C@@]([H])(N([H])C(=O)[C@@]([H])(N([H])C(=O)[C@@]([H])(N([H])C(=O)C([H])([H])C([H])(C([H])([H])[H])C([H])([H])[H])C([H])(C([H])([H])[H])C([H])([H])[H])C([H])(C([H])([H])[H])C([H])([H])[H])C([H])([H])C([H])(C([H])([H])[H])C([H])([H])[H]


 53 52  0  0  0  0  0  0  0  0999 V2000
    7.0430   48.8826  129.9924 C   0  0  0  0  0  0  0  0  0  0  0  0
    8.0300   47.8531  129.7025 N   0  0  0  0  0  0  0  0  0  0  0  0
    7.8716   46.4947  130.0187 C   0  0  0  0  0  0  0  0  0  0  0  0
    6.8026   46.1539  130.5868 O   0  0  0  0  0  0  0  0  0  0  0  0
    8.8995   48.1669  129.2273 H   0  0  0  0  0  0  0  0  0  0  0  0
    8.8894   45.5057  129.7164 C   0  0  0  0  0  0  0  0  0  0  0  0
    9.7687   45.3183  130.8865 N   0  0  0  0  0  0  0  0  0  0  0  0
   11.1463   45.0928  130.7172 C   0  0  0  0  0  0  0  0  0  0  0  0
   11.6806   45.0549  129.5479 O   0  0  0  0  0  0  0  0  0  0  0  0
    9.3479   45.3579  131.8142 H   0  0  0  0  0  0  0  0  0  0  0  0
   12.0100   44.8922  131.8977 C   0  0  0  0  0  0  0  0  0  0  0  0
   11.4761   45.6154  133.0266 N   0  0  0  0  0  0  0  0  0  0  0  0
   11.0391   46.9292  133.0745 C   0  0  0  0  0  0  0  0  0  0  0  0
   11.0762   47.6376  132.0367 O   0  0  0  0  0  0  0  0  0  0  0  0
   11.4263   45.0334  133.9133 H   0  0  0  0  0  0  0  0  0  0  0  0
   10.5258   47.5221  134.3181 C   0  0  0  0  0  0  0  0  0  0  0  0
    9.3494   46.7781  134.9172 C   0  0  0  0  0  0  0  0  0  0  0  0
    9.8095   45.6349  135.7806 C   0  0  0  0  0  0  0  0  0  0  0  0
    8.3356   46.3540  133.9082 C   0  0  0  0  0  0  0  0  0  0  0  0
   12.3625   43.4824  132.1809 C   0  0  0  0  0  0  0  0  0  0  0  0
   12.6275   43.3263  133.6773 C   0  0  0  0  0  0  0  0  0  0  0  0
   11.4132   42.4482  131.6771 C   0  0  0  0  0  0  0  0  0  0  0  0
    8.4912   44.2157  129.1234 C   0  0  0  0  0  0  0  0  0  0  0  0
    9.2259   43.7773  127.8865 C   0  0  0  0  0  0  0  0  0  0  0  0
    8.3321   43.0565  130.0534 C   0  0  0  0  0  0  0  0  0  0  0  0
    6.5350   49.5045  128.7629 C   0  0  0  0  0  0  0  0  0  0  0  0
    5.3776   50.2925  129.0643 O   0  0  0  0  0  0  0  0  0  0  0  0
    5.7269   51.1754  129.3649 H   0  0  0  0  0  0  0  0  0  0  0  0
    7.4908   50.4339  128.1189 C   0  0  0  0  0  0  0  0  0  0  0  0
    7.2150   52.7108  127.1032 N   0  0  0  0  0  0  0  0  0  0  0  0
    7.1451   51.8613  128.2674 C   0  0  0  0  0  0  0  0  0  0  0  0
    6.7922   52.4472  129.3140 O   0  0  0  0  0  0  0  0  0  0  0  0
    7.4993   52.2921  126.2123 H   0  0  0  0  0  0  0  0  0  0  0  0
    6.8918   54.0994  127.2039 C   0  0  0  0  0  0  0  0  0  0  0  0
    8.1646   54.9383  127.3746 C   0  0  0  0  0  0  0  0  0  0  0  0
    6.3359   54.1108  124.7141 N   0  0  0  0  0  0  0  0  0  0  0  0
    6.1722   54.6172  126.0278 C   0  0  0  0  0  0  0  0  0  0  0  0
    5.3676   55.5726  126.2280 O   0  0  0  0  0  0  0  0  0  0  0  0
    7.0480   53.2928  124.6770 H   0  0  0  0  0  0  0  0  0  0  0  0
    5.7099   54.5404  123.5197 C   0  0  0  0  0  0  0  0  0  0  0  0
    4.3242   53.9766  123.4457 C   0  0  0  0  0  0  0  0  0  0  0  0
    3.3216   54.2644  124.3940 N   0  0  0  0  0  0  0  0  0  0  0  0
    4.0525   53.2134  122.4897 O   0  0  0  0  0  0  0  0  0  0  0  0
    2.9792   53.5484  125.0999 H   0  0  0  0  0  0  0  0  0  0  0  0
    2.8800   55.2063  124.4267 H   0  0  0  0  0  0  0  0  0  0  0  0
    6.3559   54.3095  122.2108 C   0  0  0  0  0  0  0  0  0  0  0  0
    8.3475   55.7861  122.4603 C   0  0  0  0  0  0  0  0  0  0  0  0
    7.8485   54.3650  122.1514 C   0  0  0  0  0  0  0  0  0  0  0  0
    8.5426   53.3537  123.0081 C   0  0  0  0  0  0  0  0  0  0  0  0
    7.5974   49.8290  131.0148 C   0  0  0  0  0  0  0  0  0  0  0  0
    8.9193   49.5969  131.5960 C   0  0  0  0  0  0  0  0  0  0  0  0
    9.3643   50.5829  132.6471 C   0  0  0  0  0  0  0  0  0  0  0  0
    9.9343   49.6816  130.4366 C   0  0  0  0  0  0  0  0  0  0  0  0
 47 48  1  0  0  0
 48 49  1  0  0  0
 48 46  1  0  0  0
 46 40  1  0  0  0
 40 36  1  0  0  0
 36 37  1  0  0  0
 37 38  2  0  0  0
 37 34  1  0  0  0
 34 35  1  0  0  0
 34 30  1  0  0  0
 30 31  1  0  0  0
 31 32  2  0  0  0
 31 29  1  0  0  0
 29 26  1  0  0  0
 26 27  1  0  0  0
 26  1  1  0  0  0
  1 50  1  0  0  0
 50 51  1  0  0  0
 51 52  1  0  0  0
 51 53  1  0  0  0
  1  2  1  0  0  0
  2  3  1  0  0  0
  3  4  2  0  0  0
  3  6  1  0  0  0
  6  7  1  0  0  0
  7  8  1  0  0  0
  8  9  2  0  0  0
  8 11  1  0  0  0
 11 12  1  0  0  0
 12 13  1  0  0  0
 13 14  2  0  0  0
 13 16  1  0  0  0
 16 17  1  0  0  0
 17 18  1  0  0  0
 17 19  1  0  0  0
 11 20  1  0  0  0
 20 21  1  0  0  0
 20 22  1  0  0  0
  6 23  1  0  0  0
 23 24  1  0  0  0
 23 25  1  0  0  0
 40 41  1  0  0  0
 41 42  1  0  0  0
 41 43  2  0  0  0
 36 39  1  0  0  0
 30 33  1  0  0  0
 27 28  1  0  0  0
  2  5  1  0  0  0
  7 10  1  0  0  0
 12 15  1  0  0  0
 42 44  1  0  0  0
 42 45  1  0  0  0
M  END
> <minimizedAffinity>
-3.56779

> <CNNscore>
0.3162893653

> <CNNaffinity>
7.5419631004

> <CNN_VS>
2.3854427338

> <CNNaffinity_variance>
0.1996128261

$$$$
[H]O[C@@]([H])(C([H])([H])C(=O)N([H])[C@]([H])(C(=O)N([H])[C@]([H])(C(=O)N([H])[H])C([H])([H])C([H])(C([H])([H])[H])C([H])([H])[H])C([H])([H])[H])[C@@]([H])(N([H])C(=O)[C@@]([H])(N([H])C(=O)[C@@]([H])(N([H])C(=O)C([H])([H])C([H])(C([H])([H])[H])C([H])([H])[H])C([H])(C([H])([H])[H])C([H])([H])[H])C([H])(C([H])([H])[H])C([H])([H])[H])C([H])([H])C([H])(C([H])([H])[H])C([H])([H])[H]


 53 52  0  0  0  0  0  0  0  0999 V2000
    8.8577   47.9428  133.0627 C   0  0  0  0  0  0  0  0  0  0  0  0
    9.2229   46.6980  132.4030 N   0  0  0  0  0  0  0  0  0  0  0  0
    8.2995   45.7879  131.8651 C   0  0  0  0  0  0  0  0  0  0  0  0
    7.0793   46.0769  131.9614 O   0  0  0  0  0  0  0  0  0  0  0  0
   10.2394   46.4918  132.3348 H   0  0  0  0  0  0  0  0  0  0  0  0
    8.7128   44.5539  131.2233 C   0  0  0  0  0  0  0  0  0  0  0  0
   10.1762   44.3987  131.3320 N   0  0  0  0  0  0  0  0  0  0  0  0
   11.0407   45.3392  130.7442 C   0  0  0  0  0  0  0  0  0  0  0  0
   10.5872   46.3617  130.1093 O   0  0  0  0  0  0  0  0  0  0  0  0
   10.5368   43.5940  131.8434 H   0  0  0  0  0  0  0  0  0  0  0  0
   12.5027   45.1616  130.8491 C   0  0  0  0  0  0  0  0  0  0  0  0
   12.8292   44.4878  132.0828 N   0  0  0  0  0  0  0  0  0  0  0  0
   12.5550   44.8919  133.3792 C   0  0  0  0  0  0  0  0  0  0  0  0
   11.9385   45.9689  133.5800 O   0  0  0  0  0  0  0  0  0  0  0  0
   13.3426   43.5697  131.9373 H   0  0  0  0  0  0  0  0  0  0  0  0
   12.9674   44.0859  134.5375 C   0  0  0  0  0  0  0  0  0  0  0  0
   11.8171   43.6230  135.4087 C   0  0  0  0  0  0  0  0  0  0  0  0
   12.3160   42.9748  136.6717 C   0  0  0  0  0  0  0  0  0  0  0  0
   10.8278   42.7710  134.6869 C   0  0  0  0  0  0  0  0  0  0  0  0
   13.1499   44.5906  129.6461 C   0  0  0  0  0  0  0  0  0  0  0  0
   14.2849   43.6659  130.0827 C   0  0  0  0  0  0  0  0  0  0  0  0
   12.2478   43.9300  128.6590 C   0  0  0  0  0  0  0  0  0  0  0  0
    8.0076   43.2996  131.5453 C   0  0  0  0  0  0  0  0  0  0  0  0
    8.1702   42.1580  130.5798 C   0  0  0  0  0  0  0  0  0  0  0  0
    8.1184   42.7943  132.9475 C   0  0  0  0  0  0  0  0  0  0  0  0
    9.9568   48.9159  133.0251 C   0  0  0  0  0  0  0  0  0  0  0  0
   11.0557   48.3731  132.2839 O   0  0  0  0  0  0  0  0  0  0  0  0
   10.8539   48.5661  131.3279 H   0  0  0  0  0  0  0  0  0  0  0  0
    9.6123   50.1875  132.3494 C   0  0  0  0  0  0  0  0  0  0  0  0
    8.1372   51.1801  130.5800 N   0  0  0  0  0  0  0  0  0  0  0  0
    8.3775   50.1324  131.5425 C   0  0  0  0  0  0  0  0  0  0  0  0
    7.4800   49.2635  131.5950 O   0  0  0  0  0  0  0  0  0  0  0  0
    8.8349   51.9248  130.4878 H   0  0  0  0  0  0  0  0  0  0  0  0
    6.9525   51.1666  129.7807 C   0  0  0  0  0  0  0  0  0  0  0  0
    7.1203   52.0699  128.5524 C   0  0  0  0  0  0  0  0  0  0  0  0
    7.5342   48.8444  128.8990 N   0  0  0  0  0  0  0  0  0  0  0  0
    6.5899   49.8230  129.2986 C   0  0  0  0  0  0  0  0  0  0  0  0
    5.3555   49.5515  129.2449 O   0  0  0  0  0  0  0  0  0  0  0  0
    8.5555   49.1981  128.9960 H   0  0  0  0  0  0  0  0  0  0  0  0
    7.2960   47.5376  128.4106 C   0  0  0  0  0  0  0  0  0  0  0  0
    5.8766   47.1471  128.6867 C   0  0  0  0  0  0  0  0  0  0  0  0
    5.4688   46.5067  129.8745 N   0  0  0  0  0  0  0  0  0  0  0  0
    5.0168   47.4074  127.8130 O   0  0  0  0  0  0  0  0  0  0  0  0
    5.1730   45.4869  129.9021 H   0  0  0  0  0  0  0  0  0  0  0  0
    5.4450   47.0284  130.7747 H   0  0  0  0  0  0  0  0  0  0  0  0
    8.1578   46.4128  128.8301 C   0  0  0  0  0  0  0  0  0  0  0  0
   10.2287   46.1642  127.4669 C   0  0  0  0  0  0  0  0  0  0  0  0
    8.8250   45.6100  127.7602 C   0  0  0  0  0  0  0  0  0  0  0  0
    8.8730   44.1385  128.0261 C   0  0  0  0  0  0  0  0  0  0  0  0
    8.3070   47.6410  134.4243 C   0  0  0  0  0  0  0  0  0  0  0  0
    9.0750   46.8299  135.3684 C   0  0  0  0  0  0  0  0  0  0  0  0
   10.5720   47.0111  135.3340 C   0  0  0  0  0  0  0  0  0  0  0  0
    8.7890   45.3540  135.0196 C   0  0  0  0  0  0  0  0  0  0  0  0
 47 48  1  0  0  0
 48 49  1  0  0  0
 48 46  1  0  0  0
 46 40  1  0  0  0
 40 36  1  0  0  0
 36 37  1  0  0  0
 37 38  2  0  0  0
 37 34  1  0  0  0
 34 35  1  0  0  0
 34 30  1  0  0  0
 30 31  1  0  0  0
 31 32  2  0  0  0
 31 29  1  0  0  0
 29 26  1  0  0  0
 26 27  1  0  0  0
 26  1  1  0  0  0
  1 50  1  0  0  0
 50 51  1  0  0  0
 51 52  1  0  0  0
 51 53  1  0  0  0
  1  2  1  0  0  0
  2  3  1  0  0  0
  3  4  2  0  0  0
  3  6  1  0  0  0
  6  7  1  0  0  0
  7  8  1  0  0  0
  8  9  2  0  0  0
  8 11  1  0  0  0
 11 12  1  0  0  0
 12 13  1  0  0  0
 13 14  2  0  0  0
 13 16  1  0  0  0
 16 17  1  0  0  0
 17 18  1  0  0  0
 17 19  1  0  0  0
 11 20  1  0  0  0
 20 21  1  0  0  0
 20 22  1  0  0  0
  6 23  1  0  0  0
 23 24  1  0  0  0
 23 25  1  0  0  0
 40 41  1  0  0  0
 41 42  1  0  0  0
 41 43  2  0  0  0
 36 39  1  0  0  0
 30 33  1  0  0  0
 27 28  1  0  0  0
  2  5  1  0  0  0
  7 10  1  0  0  0
 12 15  1  0  0  0
 42 44  1  0  0  0
 42 45  1  0  0  0
M  END
> <minimizedAffinity>
5.25918

> <CNNscore>
0.3117376566

> <CNNaffinity>
7.8267698288

> <CNN_VS>
2.4398989677

> <CNNaffinity_variance>
0.2535706162

$$$$
[H]O[C@]1([H])[C@@]([H])(C([H])([H])OP(=O)(O[H])OP(=O)(O[H])OP(=O)(O[H])O[H])O[C@@]([H])(n2c([H])c([H])c(=O)n([H])c2=S)[C@]1([H])O[H]


 36 37  0  0  0  0  0  0  0  0999 V2000
    8.1294   43.6060  129.0936 O   0  0  0  0  0  0  0  0  0  0  0  0
    8.2805   44.9731  129.1502 C   0  0  0  0  0  0  0  0  0  0  0  0
    7.5993   45.5669  130.4045 C   0  0  0  0  0  0  0  0  0  0  0  0
    8.1240   44.6627  131.4007 O   0  0  0  0  0  0  0  0  0  0  0  0
    8.2332   46.8209  130.5558 C   0  0  0  0  0  0  0  0  0  0  0  0
    9.4882   46.7213  129.8720 O   0  0  0  0  0  0  0  0  0  0  0  0
    9.6611   45.4132  129.5988 C   0  0  0  0  0  0  0  0  0  0  0  0
    7.7710   43.4227  128.1680 H   0  0  0  0  0  0  0  0  0  0  0  0
    8.6269   45.1693  132.0857 H   0  0  0  0  0  0  0  0  0  0  0  0
    7.7902   48.1063  130.1790 N   0  0  0  0  0  0  0  0  0  0  0  0
    8.5394   49.1332  130.6116 C   0  0  0  0  0  0  0  0  0  0  0  0
    8.2532   50.4424  130.3962 C   0  0  0  0  0  0  0  0  0  0  0  0
    7.1192   50.7653  129.6775 C   0  0  0  0  0  0  0  0  0  0  0  0
    6.7819   51.9741  129.4582 O   0  0  0  0  0  0  0  0  0  0  0  0
    6.3759   49.7439  129.2241 N   0  0  0  0  0  0  0  0  0  0  0  0
    6.7325   48.4479  129.4879 C   0  0  0  0  0  0  0  0  0  0  0  0
    5.7195   47.3366  128.9643 S   0  0  0  0  0  0  0  0  0  0  0  0
    5.5426   49.9789  128.6480 H   0  0  0  0  0  0  0  0  0  0  0  0
   10.6894   44.9894  128.6269 C   0  0  0  0  0  0  0  0  0  0  0  0
   11.9008   44.7765  129.3469 O   0  0  0  0  0  0  0  0  0  0  0  0
   11.5370   43.8542  130.7189 P   0  0  0  0  0  0  0  0  0  0  0  0
   10.4258   42.6254  130.1688 O   0  0  0  0  0  0  0  0  0  0  0  0
   12.7454   43.1959  131.3188 O   0  0  0  0  0  0  0  0  0  0  0  0
   10.6678   41.7804  130.5506 H   0  0  0  0  0  0  0  0  0  0  0  0
   10.7047   44.7110  131.8608 O   0  0  0  0  0  0  0  0  0  0  0  0
   11.7591   45.7392  132.7283 P   0  0  0  0  0  0  0  0  0  0  0  0
   11.0259   47.1669  133.2005 O   0  0  0  0  0  0  0  0  0  0  0  0
   12.9258   46.0428  131.8487 O   0  0  0  0  0  0  0  0  0  0  0  0
   10.7178   47.1681  134.1477 H   0  0  0  0  0  0  0  0  0  0  0  0
   12.2808   44.8506  134.0716 O   0  0  0  0  0  0  0  0  0  0  0  0
   11.0219   43.9434  134.7406 P   0  0  0  0  0  0  0  0  0  0  0  0
   10.6232   42.6400  133.7286 O   0  0  0  0  0  0  0  0  0  0  0  0
    9.6316   44.9076  134.8709 O   0  0  0  0  0  0  0  0  0  0  0  0
   11.4356   43.4430  136.1156 O   0  0  0  0  0  0  0  0  0  0  0  0
   11.3622   41.9785  133.6718 H   0  0  0  0  0  0  0  0  0  0  0  0
    9.3079   44.9347  135.8142 H   0  0  0  0  0  0  0  0  0  0  0  0
  1  2  1  0  0  0
  2  3  1  0  0  0
  3  4  1  0  0  0
  3  5  1  0  0  0
  5  6  1  0  0  0
  6  7  1  0  0  0
  7 19  1  0  0  0
 19 20  1  0  0  0
 20 21  1  0  0  0
 21 22  1  0  0  0
 21 23  2  0  0  0
 21 25  1  0  0  0
 25 26  1  0  0  0
 26 27  1  0  0  0
 26 28  2  0  0  0
 26 30  1  0  0  0
 30 31  1  0  0  0
 31 32  1  0  0  0
 31 33  1  0  0  0
 31 34  2  0  0  0
  5 10  1  0  0  0
 10 11  1  0  0  0
 11 12  2  0  0  0
 12 13  1  0  0  0
 13 14  2  0  0  0
 13 15  1  0  0  0
 15 16  1  0  0  0
 16 17  2  0  0  0
  7  2  1  0  0  0
 16 10  1  0  0  0
  1  8  1  0  0  0
  4  9  1  0  0  0
 22 24  1  0  0  0
 27 29  1  0  0  0
 32 35  1  0  0  0
 33 36  1  0  0  0
 15 18  1  0  0  0
M  END
> <minimizedAffinity>
-5.31428

> <CNNscore>
0.5279892087

> <CNNaffinity>
6.1025972366

> <CNN_VS>
3.2221055031

> <CNNaffinity_variance>
4.8227896690

$$$$
[H]O[C@]1([H])[C@@]([H])(C([H])([H])OP(=O)(O[H])OP(=O)(O[H])OP(=O)(O[H])O[H])O[C@@]([H])(n2c([H])c([H])c(=O)n([H])c2=S)[C@]1([H])O[H]


 36 37  0  0  0  0  0  0  0  0999 V2000
    8.9469   46.5082  131.1273 O   0  0  0  0  0  0  0  0  0  0  0  0
    9.6988   46.5286  132.2801 C   0  0  0  0  0  0  0  0  0  0  0  0
   10.1524   47.9633  132.6353 C   0  0  0  0  0  0  0  0  0  0  0  0
    8.8877   48.6458  132.4937 O   0  0  0  0  0  0  0  0  0  0  0  0
   10.4646   47.8744  134.0108 C   0  0  0  0  0  0  0  0  0  0  0  0
    9.7443   46.7426  134.5135 O   0  0  0  0  0  0  0  0  0  0  0  0
    8.8735   46.3950  133.5457 C   0  0  0  0  0  0  0  0  0  0  0  0
    9.3764   45.8005  130.5498 H   0  0  0  0  0  0  0  0  0  0  0  0
    8.6415   49.0821  133.3468 H   0  0  0  0  0  0  0  0  0  0  0  0
   11.7179   47.7345  134.6435 N   0  0  0  0  0  0  0  0  0  0  0  0
   12.1237   48.7842  135.3757 C   0  0  0  0  0  0  0  0  0  0  0  0
   13.3165   48.8622  136.0189 C   0  0  0  0  0  0  0  0  0  0  0  0
   14.1884   47.7948  135.9339 C   0  0  0  0  0  0  0  0  0  0  0  0
   15.3316   47.8123  136.4959 O   0  0  0  0  0  0  0  0  0  0  0  0
   13.7814   46.7332  135.2206 N   0  0  0  0  0  0  0  0  0  0  0  0
   12.5613   46.7347  134.5979 C   0  0  0  0  0  0  0  0  0  0  0  0
   12.2384   45.4485  133.7167 S   0  0  0  0  0  0  0  0  0  0  0  0
   14.4159   45.9100  135.1859 H   0  0  0  0  0  0  0  0  0  0  0  0
    8.1961   45.0834  133.5954 C   0  0  0  0  0  0  0  0  0  0  0  0
    7.9224   44.6890  132.2534 O   0  0  0  0  0  0  0  0  0  0  0  0
    8.4294   43.0846  132.0676 P   0  0  0  0  0  0  0  0  0  0  0  0
    7.5041   42.1695  133.2312 O   0  0  0  0  0  0  0  0  0  0  0  0
    8.1677   42.5438  130.6919 O   0  0  0  0  0  0  0  0  0  0  0  0
    7.1903   41.3600  132.8257 H   0  0  0  0  0  0  0  0  0  0  0  0
   10.0091   42.8613  132.4980 O   0  0  0  0  0  0  0  0  0  0  0  0
   11.0519   43.3621  131.2399 P   0  0  0  0  0  0  0  0  0  0  0  0
   12.5692   42.6647  131.3421 O   0  0  0  0  0  0  0  0  0  0  0  0
   11.1776   44.8473  131.3160 O   0  0  0  0  0  0  0  0  0  0  0  0
   12.6949   41.8822  130.7388 H   0  0  0  0  0  0  0  0  0  0  0  0
   10.2823   42.9339  129.7941 O   0  0  0  0  0  0  0  0  0  0  0  0
   10.5429   44.0887  128.5884 P   0  0  0  0  0  0  0  0  0  0  0  0
   10.4838   43.3697  127.0517 O   0  0  0  0  0  0  0  0  0  0  0  0
   12.0951   44.7523  128.7610 O   0  0  0  0  0  0  0  0  0  0  0  0
    9.4953   45.1847  128.7043 O   0  0  0  0  0  0  0  0  0  0  0  0
    9.5740   43.0327  126.8375 H   0  0  0  0  0  0  0  0  0  0  0  0
   12.0460   45.7439  128.8592 H   0  0  0  0  0  0  0  0  0  0  0  0
  1  2  1  0  0  0
  2  3  1  0  0  0
  3  4  1  0  0  0
  3  5  1  0  0  0
  5  6  1  0  0  0
  6  7  1  0  0  0
  7 19  1  0  0  0
 19 20  1  0  0  0
 20 21  1  0  0  0
 21 22  1  0  0  0
 21 23  2  0  0  0
 21 25  1  0  0  0
 25 26  1  0  0  0
 26 27  1  0  0  0
 26 28  2  0  0  0
 26 30  1  0  0  0
 30 31  1  0  0  0
 31 32  1  0  0  0
 31 33  1  0  0  0
 31 34  2  0  0  0
  5 10  1  0  0  0
 10 11  1  0  0  0
 11 12  2  0  0  0
 12 13  1  0  0  0
 13 14  2  0  0  0
 13 15  1  0  0  0
 15 16  1  0  0  0
 16 17  2  0  0  0
  7  2  1  0  0  0
 16 10  1  0  0  0
  1  8  1  0  0  0
  4  9  1  0  0  0
 22 24  1  0  0  0
 27 29  1  0  0  0
 32 35  1  0  0  0
 33 36  1  0  0  0
 15 18  1  0  0  0
M  END
> <minimizedAffinity>
7.00931

> <CNNscore>
0.4846232533

> <CNNaffinity>
5.9142041206

> <CNN_VS>
2.8661608696

> <CNNaffinity_variance>
7.6069183350

$$$$
[H]O[C@]1([H])[C@@]([H])(C([H])([H])OP(=O)(O[H])OP(=O)(O[H])OP(=O)(O[H])O[H])O[C@@]([H])(n2c([H])c([H])c(=O)n([H])c2=S)[C@]1([H])O[H]


 36 37  0  0  0  0  0  0  0  0999 V2000
    8.3915   43.7237  128.8258 O   0  0  0  0  0  0  0  0  0  0  0  0
    8.4838   45.0787  129.0501 C   0  0  0  0  0  0  0  0  0  0  0  0
    7.4188   45.5592  130.0625 C   0  0  0  0  0  0  0  0  0  0  0  0
    7.6132   44.5636  131.0903 O   0  0  0  0  0  0  0  0  0  0  0  0
    7.9397   46.7896  130.5229 C   0  0  0  0  0  0  0  0  0  0  0  0
    9.3506   46.7448  130.2783 O   0  0  0  0  0  0  0  0  0  0  0  0
    9.6335   45.4663  129.9606 C   0  0  0  0  0  0  0  0  0  0  0  0
    8.3570   43.6287  127.8215 H   0  0  0  0  0  0  0  0  0  0  0  0
    7.8547   45.0016  131.9439 H   0  0  0  0  0  0  0  0  0  0  0  0
    7.6127   48.1072  130.1388 N   0  0  0  0  0  0  0  0  0  0  0  0
    8.4212   49.0709  130.6083 C   0  0  0  0  0  0  0  0  0  0  0  0
    8.2459   50.3993  130.3918 C   0  0  0  0  0  0  0  0  0  0  0  0
    7.1698   50.8125  129.6316 C   0  0  0  0  0  0  0  0  0  0  0  0
    6.9360   52.0448  129.4084 O   0  0  0  0  0  0  0  0  0  0  0  0
    6.3684   49.8538  129.1415 N   0  0  0  0  0  0  0  0  0  0  0  0
    6.6129   48.5329  129.4092 C   0  0  0  0  0  0  0  0  0  0  0  0
    5.5388   47.5059  128.8377 S   0  0  0  0  0  0  0  0  0  0  0  0
    5.5793   50.1554  128.5349 H   0  0  0  0  0  0  0  0  0  0  0  0
   10.9311   45.1267  129.3421 C   0  0  0  0  0  0  0  0  0  0  0  0
   11.4029   43.9318  129.9593 O   0  0  0  0  0  0  0  0  0  0  0  0
   12.1955   44.3623  131.3917 P   0  0  0  0  0  0  0  0  0  0  0  0
   12.5575   42.8533  132.1913 O   0  0  0  0  0  0  0  0  0  0  0  0
   13.4726   45.1135  131.1509 O   0  0  0  0  0  0  0  0  0  0  0  0
   13.4507   42.8802  132.5373 H   0  0  0  0  0  0  0  0  0  0  0  0
   11.2169   45.1840  132.4396 O   0  0  0  0  0  0  0  0  0  0  0  0
   11.3677   44.5554  134.0218 P   0  0  0  0  0  0  0  0  0  0  0  0
   10.5985   45.5002  135.1685 O   0  0  0  0  0  0  0  0  0  0  0  0
   12.8230   44.4672  134.3406 O   0  0  0  0  0  0  0  0  0  0  0  0
    9.7005   45.1608  135.4341 H   0  0  0  0  0  0  0  0  0  0  0  0
   10.7049   42.9984  133.9732 O   0  0  0  0  0  0  0  0  0  0  0  0
    9.1889   42.9939  133.2269 P   0  0  0  0  0  0  0  0  0  0  0  0
    8.2083   41.7698  133.8764 O   0  0  0  0  0  0  0  0  0  0  0  0
    9.3686   42.6543  131.5740 O   0  0  0  0  0  0  0  0  0  0  0  0
    8.5331   44.3538  133.4077 O   0  0  0  0  0  0  0  0  0  0  0  0
    7.9823   41.9450  134.8279 H   0  0  0  0  0  0  0  0  0  0  0  0
    8.9708   43.3817  131.0190 H   0  0  0  0  0  0  0  0  0  0  0  0
  1  2  1  0  0  0
  2  3  1  0  0  0
  3  4  1  0  0  0
  3  5  1  0  0  0
  5  6  1  0  0  0
  6  7  1  0  0  0
  7 19  1  0  0  0
 19 20  1  0  0  0
 20 21  1  0  0  0
 21 22  1  0  0  0
 21 23  2  0  0  0
 21 25  1  0  0  0
 25 26  1  0  0  0
 26 27  1  0  0  0
 26 28  2  0  0  0
 26 30  1  0  0  0
 30 31  1  0  0  0
 31 32  1  0  0  0
 31 33  1  0  0  0
 31 34  2  0  0  0
  5 10  1  0  0  0
 10 11  1  0  0  0
 11 12  2  0  0  0
 12 13  1  0  0  0
 13 14  2  0  0  0
 13 15  1  0  0  0
 15 16  1  0  0  0
 16 17  2  0  0  0
  7  2  1  0  0  0
 16 10  1  0  0  0
  1  8  1  0  0  0
  4  9  1  0  0  0
 22 24  1  0  0  0
 27 29  1  0  0  0
 32 35  1  0  0  0
 33 36  1  0  0  0
 15 18  1  0  0  0
M  END
> <minimizedAffinity>
-5.29097

> <CNNscore>
0.4672649801

> <CNNaffinity>
6.1116776466

> <CNN_VS>
2.8557729721

> <CNNaffinity_variance>
4.8343753815

$$$$
[H]O[C@]1([H])[C@@]([H])(C([H])([H])OP(=O)(O[H])OP(=O)(O[H])OP(=O)(O[H])O[H])O[C@@]([H])(n2c([H])c([H])c(=O)n([H])c2=S)[C@]1([H])O[H]


 36 37  0  0  0  0  0  0  0  0999 V2000
   11.6668   47.0520  134.1147 O   0  0  0  0  0  0  0  0  0  0  0  0
   10.6589   47.9255  134.4555 C   0  0  0  0  0  0  0  0  0  0  0  0
   10.5926   49.1225  133.4794 C   0  0  0  0  0  0  0  0  0  0  0  0
   10.6369   48.4019  132.2287 O   0  0  0  0  0  0  0  0  0  0  0  0
    9.2835   49.6215  133.6655 C   0  0  0  0  0  0  0  0  0  0  0  0
    8.5151   48.5405  134.2072 O   0  0  0  0  0  0  0  0  0  0  0  0
    9.2758   47.4368  134.0696 C   0  0  0  0  0  0  0  0  0  0  0  0
   12.1930   46.9182  134.9656 H   0  0  0  0  0  0  0  0  0  0  0  0
    9.8297   48.6035  131.6935 H   0  0  0  0  0  0  0  0  0  0  0  0
    8.8374   50.7179  134.4333 N   0  0  0  0  0  0  0  0  0  0  0  0
    9.3992   51.9023  134.1431 C   0  0  0  0  0  0  0  0  0  0  0  0
    9.1399   53.0616  134.7998 C   0  0  0  0  0  0  0  0  0  0  0  0
    8.2317   53.0474  135.8398 C   0  0  0  0  0  0  0  0  0  0  0  0
    7.9592   54.0957  136.5107 O   0  0  0  0  0  0  0  0  0  0  0  0
    7.6504   51.8712  136.1228 N   0  0  0  0  0  0  0  0  0  0  0  0
    7.9699   50.7441  135.4131 C   0  0  0  0  0  0  0  0  0  0  0  0
    7.2713   49.4009  135.9060 S   0  0  0  0  0  0  0  0  0  0  0  0
    6.9358   51.8616  136.8783 H   0  0  0  0  0  0  0  0  0  0  0  0
    8.9303   46.2031  134.8045 C   0  0  0  0  0  0  0  0  0  0  0  0
    8.1816   45.3713  133.9220 O   0  0  0  0  0  0  0  0  0  0  0  0
    9.2424   44.7669  132.7494 P   0  0  0  0  0  0  0  0  0  0  0  0
    8.9403   45.7191  131.3177 O   0  0  0  0  0  0  0  0  0  0  0  0
   10.6855   44.9039  133.1393 O   0  0  0  0  0  0  0  0  0  0  0  0
    9.7740   45.9601  130.9115 H   0  0  0  0  0  0  0  0  0  0  0  0
    8.8941   43.2107  132.3161 O   0  0  0  0  0  0  0  0  0  0  0  0
    9.5999   42.8346  130.8056 P   0  0  0  0  0  0  0  0  0  0  0  0
    8.4800   42.2971  129.6849 O   0  0  0  0  0  0  0  0  0  0  0  0
   10.6275   41.7765  131.0333 O   0  0  0  0  0  0  0  0  0  0  0  0
    8.1841   42.9982  129.0423 H   0  0  0  0  0  0  0  0  0  0  0  0
   10.3575   44.2528  130.2757 O   0  0  0  0  0  0  0  0  0  0  0  0
   10.5683   44.2528  128.5991 P   0  0  0  0  0  0  0  0  0  0  0  0
   12.1705   43.8585  128.1998 O   0  0  0  0  0  0  0  0  0  0  0  0
   10.2785   45.8092  127.9884 O   0  0  0  0  0  0  0  0  0  0  0  0
    9.6029   43.2613  127.9690 O   0  0  0  0  0  0  0  0  0  0  0  0
   12.3919   42.9221  128.4472 H   0  0  0  0  0  0  0  0  0  0  0  0
    9.5628   45.7881  127.2936 H   0  0  0  0  0  0  0  0  0  0  0  0
  1  2  1  0  0  0
  2  3  1  0  0  0
  3  4  1  0  0  0
  3  5  1  0  0  0
  5  6  1  0  0  0
  6  7  1  0  0  0
  7 19  1  0  0  0
 19 20  1  0  0  0
 20 21  1  0  0  0
 21 22  1  0  0  0
 21 23  2  0  0  0
 21 25  1  0  0  0
 25 26  1  0  0  0
 26 27  1  0  0  0
 26 28  2  0  0  0
 26 30  1  0  0  0
 30 31  1  0  0  0
 31 32  1  0  0  0
 31 33  1  0  0  0
 31 34  2  0  0  0
  5 10  1  0  0  0
 10 11  1  0  0  0
 11 12  2  0  0  0
 12 13  1  0  0  0
 13 14  2  0  0  0
 13 15  1  0  0  0
 15 16  1  0  0  0
 16 17  2  0  0  0
  7  2  1  0  0  0
 16 10  1  0  0  0
  1  8  1  0  0  0
  4  9  1  0  0  0
 22 24  1  0  0  0
 27 29  1  0  0  0
 32 35  1  0  0  0
 33 36  1  0  0  0
 15 18  1  0  0  0
M  END
> <minimizedAffinity>
20.51511

> <CNNscore>
0.4578090310

> <CNNaffinity>
5.2637600899

> <CNN_VS>
2.4097969532

> <CNNaffinity_variance>
3.6551277637

$$$$
[H]O[C@]1([H])[C@@]([H])(C([H])([H])OP(=O)(O[H])OP(=O)(O[H])OP(=O)(O[H])O[H])O[C@@]([H])(n2c([H])c([H])c(=O)n([H])c2=S)[C@]1([H])O[H]


 36 37  0  0  0  0  0  0  0  0999 V2000
   10.6598   50.1928  131.3828 O   0  0  0  0  0  0  0  0  0  0  0  0
   10.4718   48.9158  131.8611 C   0  0  0  0  0  0  0  0  0  0  0  0
   10.4471   48.8877  133.4067 C   0  0  0  0  0  0  0  0  0  0  0  0
    9.5242   49.9733  133.6415 O   0  0  0  0  0  0  0  0  0  0  0  0
    9.7934   47.6695  133.6993 C   0  0  0  0  0  0  0  0  0  0  0  0
    9.0296   47.3340  132.5346 O   0  0  0  0  0  0  0  0  0  0  0  0
    9.0381   48.4324  131.7541 C   0  0  0  0  0  0  0  0  0  0  0  0
   11.4258   50.1153  130.7300 H   0  0  0  0  0  0  0  0  0  0  0  0
    8.7418   49.6474  134.1519 H   0  0  0  0  0  0  0  0  0  0  0  0
   10.3367   46.4208  134.0686 N   0  0  0  0  0  0  0  0  0  0  0  0
    9.7270   45.7966  135.0891 C   0  0  0  0  0  0  0  0  0  0  0  0
   10.1282   44.6143  135.6216 C   0  0  0  0  0  0  0  0  0  0  0  0
   11.2363   43.9869  135.0877 C   0  0  0  0  0  0  0  0  0  0  0  0
   11.6779   42.8867  135.5544 O   0  0  0  0  0  0  0  0  0  0  0  0
   11.8394   44.5945  134.0540 N   0  0  0  0  0  0  0  0  0  0  0  0
   11.3729   45.7906  133.5765 C   0  0  0  0  0  0  0  0  0  0  0  0
   12.2296   46.4431  132.4036 S   0  0  0  0  0  0  0  0  0  0  0  0
   12.6501   44.1077  133.6211 H   0  0  0  0  0  0  0  0  0  0  0  0
    8.6188   48.3398  130.3409 C   0  0  0  0  0  0  0  0  0  0  0  0
    7.2414   47.9741  130.3232 O   0  0  0  0  0  0  0  0  0  0  0  0
    6.8655   47.4319  128.7643 P   0  0  0  0  0  0  0  0  0  0  0  0
    5.1660   47.0357  128.8098 O   0  0  0  0  0  0  0  0  0  0  0  0
    7.1028   48.4732  127.7094 O   0  0  0  0  0  0  0  0  0  0  0  0
    4.7386   47.3664  128.0184 H   0  0  0  0  0  0  0  0  0  0  0  0
    7.6297   46.0182  128.3795 O   0  0  0  0  0  0  0  0  0  0  0  0
    8.0420   45.1527  129.7945 P   0  0  0  0  0  0  0  0  0  0  0  0
    7.8119   43.5034  129.6333 O   0  0  0  0  0  0  0  0  0  0  0  0
    7.1941   45.6698  130.9085 O   0  0  0  0  0  0  0  0  0  0  0  0
    8.6462   42.9975  129.4328 H   0  0  0  0  0  0  0  0  0  0  0  0
    9.6665   45.5120  130.1076 O   0  0  0  0  0  0  0  0  0  0  0  0
   10.6877   44.8160  128.9552 P   0  0  0  0  0  0  0  0  0  0  0  0
   10.0601   43.3317  128.4214 O   0  0  0  0  0  0  0  0  0  0  0  0
   12.1977   44.4874  129.6563 O   0  0  0  0  0  0  0  0  0  0  0  0
   10.8570   45.7738  127.7865 O   0  0  0  0  0  0  0  0  0  0  0  0
    9.2120   43.4503  127.9177 H   0  0  0  0  0  0  0  0  0  0  0  0
   12.9281   44.9406  129.1500 H   0  0  0  0  0  0  0  0  0  0  0  0
  1  2  1  0  0  0
  2  3  1  0  0  0
  3  4  1  0  0  0
  3  5  1  0  0  0
  5  6  1  0  0  0
  6  7  1  0  0  0
  7 19  1  0  0  0
 19 20  1  0  0  0
 20 21  1  0  0  0
 21 22  1  0  0  0
 21 23  2  0  0  0
 21 25  1  0  0  0
 25 26  1  0  0  0
 26 27  1  0  0  0
 26 28  2  0  0  0
 26 30  1  0  0  0
 30 31  1  0  0  0
 31 32  1  0  0  0
 31 33  1  0  0  0
 31 34  2  0  0  0
  5 10  1  0  0  0
 10 11  1  0  0  0
 11 12  2  0  0  0
 12 13  1  0  0  0
 13 14  2  0  0  0
 13 15  1  0  0  0
 15 16  1  0  0  0
 16 17  2  0  0  0
  7  2  1  0  0  0
 16 10  1  0  0  0
  1  8  1  0  0  0
  4  9  1  0  0  0
 22 24  1  0  0  0
 27 29  1  0  0  0
 32 35  1  0  0  0
 33 36  1  0  0  0
 15 18  1  0  0  0
M  END
> <minimizedAffinity>
-0.72768

> <CNNscore>
0.4447265267

> <CNNaffinity>
5.9229478836

> <CNN_VS>
2.6340920925

> <CNNaffinity_variance>
5.9861378670

$$$$
[H]O[C@]1([H])[C@@]([H])(C([H])([H])OP(=O)(O[H])OP(=O)(O[H])OP(=O)(O[H])O[H])O[C@@]([H])(n2c([H])c([H])c(=O)n([H])c2=S)[C@]1([H])O[H]


 36 37  0  0  0  0  0  0  0  0999 V2000
    7.8769   46.5971  127.3805 O   0  0  0  0  0  0  0  0  0  0  0  0
    8.5000   47.1700  128.4661 C   0  0  0  0  0  0  0  0  0  0  0  0
    7.5167   47.3730  129.6417 C   0  0  0  0  0  0  0  0  0  0  0  0
    6.9142   46.0608  129.6664 O   0  0  0  0  0  0  0  0  0  0  0  0
    8.3700   47.4979  130.7613 C   0  0  0  0  0  0  0  0  0  0  0  0
    9.6059   46.8723  130.3959 O   0  0  0  0  0  0  0  0  0  0  0  0
    9.3603   46.2005  129.2539 C   0  0  0  0  0  0  0  0  0  0  0  0
    8.1118   47.1943  126.6014 H   0  0  0  0  0  0  0  0  0  0  0  0
    7.0543   45.6411  130.5513 H   0  0  0  0  0  0  0  0  0  0  0  0
    8.8108   48.6572  131.4339 N   0  0  0  0  0  0  0  0  0  0  0  0
    9.5666   48.4491  132.5239 C   0  0  0  0  0  0  0  0  0  0  0  0
   10.0445   49.4302  133.3310 C   0  0  0  0  0  0  0  0  0  0  0  0
    9.7508   50.7444  133.0252 C   0  0  0  0  0  0  0  0  0  0  0  0
   10.1502   51.7110  133.7527 O   0  0  0  0  0  0  0  0  0  0  0  0
    9.0128   50.9619  131.9254 N   0  0  0  0  0  0  0  0  0  0  0  0
    8.5656   49.9143  131.1644 C   0  0  0  0  0  0  0  0  0  0  0  0
    7.6313   50.3071  129.9364 S   0  0  0  0  0  0  0  0  0  0  0  0
    8.8218   51.9509  131.6667 H   0  0  0  0  0  0  0  0  0  0  0  0
   10.4819   45.7046  128.4307 C   0  0  0  0  0  0  0  0  0  0  0  0
   10.3036   44.3009  128.2605 O   0  0  0  0  0  0  0  0  0  0  0  0
    9.9847   43.6274  129.7804 P   0  0  0  0  0  0  0  0  0  0  0  0
    8.2466   43.4901  129.8698 O   0  0  0  0  0  0  0  0  0  0  0  0
   10.5981   42.2691  129.9590 O   0  0  0  0  0  0  0  0  0  0  0  0
    8.0112   42.6394  130.2429 H   0  0  0  0  0  0  0  0  0  0  0  0
   10.4044   44.6319  131.0236 O   0  0  0  0  0  0  0  0  0  0  0  0
   12.0197   44.3498  131.5056 P   0  0  0  0  0  0  0  0  0  0  0  0
   12.7659   45.7240  132.1006 O   0  0  0  0  0  0  0  0  0  0  0  0
   12.7694   43.8483  130.3166 O   0  0  0  0  0  0  0  0  0  0  0  0
   12.7861   45.7734  133.0952 H   0  0  0  0  0  0  0  0  0  0  0  0
   11.9526   43.1361  132.6839 O   0  0  0  0  0  0  0  0  0  0  0  0
   10.7013   43.4115  133.7857 P   0  0  0  0  0  0  0  0  0  0  0  0
   10.1331   45.0060  133.6560 O   0  0  0  0  0  0  0  0  0  0  0  0
   11.2844   43.2249  135.3683 O   0  0  0  0  0  0  0  0  0  0  0  0
    9.5755   42.4223  133.5287 O   0  0  0  0  0  0  0  0  0  0  0  0
    9.6926   45.1699  132.7807 H   0  0  0  0  0  0  0  0  0  0  0  0
   10.7558   42.5366  135.8604 H   0  0  0  0  0  0  0  0  0  0  0  0
  1  2  1  0  0  0
  2  3  1  0  0  0
  3  4  1  0  0  0
  3  5  1  0  0  0
  5  6  1  0  0  0
  6  7  1  0  0  0
  7 19  1  0  0  0
 19 20  1  0  0  0
 20 21  1  0  0  0
 21 22  1  0  0  0
 21 23  2  0  0  0
 21 25  1  0  0  0
 25 26  1  0  0  0
 26 27  1  0  0  0
 26 28  2  0  0  0
 26 30  1  0  0  0
 30 31  1  0  0  0
 31 32  1  0  0  0
 31 33  1  0  0  0
 31 34  2  0  0  0
  5 10  1  0  0  0
 10 11  1  0  0  0
 11 12  2  0  0  0
 12 13  1  0  0  0
 13 14  2  0  0  0
 13 15  1  0  0  0
 15 16  1  0  0  0
 16 17  2  0  0  0
  7  2  1  0  0  0
 16 10  1  0  0  0
  1  8  1  0  0  0
  4  9  1  0  0  0
 22 24  1  0  0  0
 27 29  1  0  0  0
 32 35  1  0  0  0
 33 36  1  0  0  0
 15 18  1  0  0  0
M  END
> <minimizedAffinity>
-0.47811

> <CNNscore>
0.4432386458

> <CNNaffinity>
6.1734108925

> <CNN_VS>
2.7362942696

> <CNNaffinity_variance>
10.4970865250

$$$$
[H]O[C@]1([H])[C@@]([H])(C([H])([H])OP(=O)(O[H])OP(=O)(O[H])OP(=O)(O[H])O[H])O[C@@]([H])(n2c([H])c([H])c(=O)n([H])c2=S)[C@]1([H])O[H]


 36 37  0  0  0  0  0  0  0  0999 V2000
   11.0584   47.1493  134.2249 O   0  0  0  0  0  0  0  0  0  0  0  0
   10.0523   47.4643  133.3398 C   0  0  0  0  0  0  0  0  0  0  0  0
   10.6002   47.6687  131.9086 C   0  0  0  0  0  0  0  0  0  0  0  0
   11.4152   46.4812  131.8029 O   0  0  0  0  0  0  0  0  0  0  0  0
    9.4560   47.5035  131.0958 C   0  0  0  0  0  0  0  0  0  0  0  0
    8.5228   46.7376  131.8672 O   0  0  0  0  0  0  0  0  0  0  0  0
    9.2101   46.2717  132.9285 C   0  0  0  0  0  0  0  0  0  0  0  0
   10.9433   47.7975  134.9900 H   0  0  0  0  0  0  0  0  0  0  0  0
   11.1136   45.9313  131.0378 H   0  0  0  0  0  0  0  0  0  0  0  0
    8.6239   48.4760  130.5021 N   0  0  0  0  0  0  0  0  0  0  0  0
    8.8394   49.7440  130.8874 C   0  0  0  0  0  0  0  0  0  0  0  0
    8.1139   50.8122  130.4691 C   0  0  0  0  0  0  0  0  0  0  0  0
    7.0794   50.6051  129.5782 C   0  0  0  0  0  0  0  0  0  0  0  0
    6.3466   51.5608  129.1627 O   0  0  0  0  0  0  0  0  0  0  0  0
    6.8706   49.3429  129.1724 N   0  0  0  0  0  0  0  0  0  0  0  0
    7.6470   48.3183  129.6454 C   0  0  0  0  0  0  0  0  0  0  0  0
    7.2393   46.8616  129.1485 S   0  0  0  0  0  0  0  0  0  0  0  0
    6.1193   49.1853  128.4708 H   0  0  0  0  0  0  0  0  0  0  0  0
    8.4893   45.7118  134.0897 C   0  0  0  0  0  0  0  0  0  0  0  0
    8.2698   44.3270  133.8337 O   0  0  0  0  0  0  0  0  0  0  0  0
    9.7759   43.5993  133.5741 P   0  0  0  0  0  0  0  0  0  0  0  0
   10.8521   44.3372  134.7338 O   0  0  0  0  0  0  0  0  0  0  0  0
    9.7542   42.1146  133.7941 O   0  0  0  0  0  0  0  0  0  0  0  0
   11.4020   43.6627  135.1349 H   0  0  0  0  0  0  0  0  0  0  0  0
   10.4151   43.9668  132.0952 O   0  0  0  0  0  0  0  0  0  0  0  0
    9.5069   43.2315  130.8479 P   0  0  0  0  0  0  0  0  0  0  0  0
    8.0428   42.6261  131.3854 O   0  0  0  0  0  0  0  0  0  0  0  0
   10.3281   42.1230  130.2786 O   0  0  0  0  0  0  0  0  0  0  0  0
    7.2670   43.2224  131.1993 H   0  0  0  0  0  0  0  0  0  0  0  0
    9.2754   44.4252  129.6699 O   0  0  0  0  0  0  0  0  0  0  0  0
   10.6588   44.6372  128.7231 P   0  0  0  0  0  0  0  0  0  0  0  0
   10.7482   43.4409  127.5219 O   0  0  0  0  0  0  0  0  0  0  0  0
   12.0427   44.4668  129.6902 O   0  0  0  0  0  0  0  0  0  0  0  0
   10.6334   46.0218  128.0951 O   0  0  0  0  0  0  0  0  0  0  0  0
   10.0142   43.5300  126.8582 H   0  0  0  0  0  0  0  0  0  0  0  0
   12.6136   45.2831  129.6364 H   0  0  0  0  0  0  0  0  0  0  0  0
  1  2  1  0  0  0
  2  3  1  0  0  0
  3  4  1  0  0  0
  3  5  1  0  0  0
  5  6  1  0  0  0
  6  7  1  0  0  0
  7 19  1  0  0  0
 19 20  1  0  0  0
 20 21  1  0  0  0
 21 22  1  0  0  0
 21 23  2  0  0  0
 21 25  1  0  0  0
 25 26  1  0  0  0
 26 27  1  0  0  0
 26 28  2  0  0  0
 26 30  1  0  0  0
 30 31  1  0  0  0
 31 32  1  0  0  0
 31 33  1  0  0  0
 31 34  2  0  0  0
  5 10  1  0  0  0
 10 11  1  0  0  0
 11 12  2  0  0  0
 12 13  1  0  0  0
 13 14  2  0  0  0
 13 15  1  0  0  0
 15 16  1  0  0  0
 16 17  2  0  0  0
  7  2  1  0  0  0
 16 10  1  0  0  0
  1  8  1  0  0  0
  4  9  1  0  0  0
 22 24  1  0  0  0
 27 29  1  0  0  0
 32 35  1  0  0  0
 33 36  1  0  0  0
 15 18  1  0  0  0
M  END
> <minimizedAffinity>
-5.35513

> <CNNscore>
0.4425072670

> <CNNaffinity>
6.1944684982

> <CNN_VS>
2.7410972118

> <CNNaffinity_variance>
6.5653710365

$$$$
[H]O[C@]1([H])[C@@]([H])(C([H])([H])OP(=O)(O[H])OP(=O)(O[H])OP(=O)(O[H])O[H])O[C@@]([H])(n2c([H])c([H])c(=O)n([H])c2=S)[C@]1([H])O[H]


 36 37  0  0  0  0  0  0  0  0999 V2000
   11.8473   48.1888  130.6994 O   0  0  0  0  0  0  0  0  0  0  0  0
   11.6021   47.2477  131.6736 C   0  0  0  0  0  0  0  0  0  0  0  0
   10.1479   47.3337  132.1912 C   0  0  0  0  0  0  0  0  0  0  0  0
    9.4552   47.3723  130.9247 O   0  0  0  0  0  0  0  0  0  0  0  0
    9.9373   46.0668  132.7812 C   0  0  0  0  0  0  0  0  0  0  0  0
   10.8895   45.1810  132.1802 O   0  0  0  0  0  0  0  0  0  0  0  0
   11.4052   45.8462  131.1279 C   0  0  0  0  0  0  0  0  0  0  0  0
   12.6874   48.6607  131.0000 H   0  0  0  0  0  0  0  0  0  0  0  0
    8.8253   46.6121  130.8605 H   0  0  0  0  0  0  0  0  0  0  0  0
    9.9903   45.6844  134.1382 N   0  0  0  0  0  0  0  0  0  0  0  0
    9.4848   46.5670  135.0147 C   0  0  0  0  0  0  0  0  0  0  0  0
    9.4875   46.4050  136.3623 C   0  0  0  0  0  0  0  0  0  0  0  0
   10.0381   45.2550  136.8924 C   0  0  0  0  0  0  0  0  0  0  0  0
   10.0917   45.0507  138.1488 O   0  0  0  0  0  0  0  0  0  0  0  0
   10.5272   44.3584  136.0216 N   0  0  0  0  0  0  0  0  0  0  0  0
   10.4890   44.5992  134.6737 C   0  0  0  0  0  0  0  0  0  0  0  0
   11.1779   43.4932  133.7585 S   0  0  0  0  0  0  0  0  0  0  0  0
   10.9068   43.4722  136.4117 H   0  0  0  0  0  0  0  0  0  0  0  0
   12.6370   45.3585  130.4751 C   0  0  0  0  0  0  0  0  0  0  0  0
   12.3752   45.2632  129.0774 O   0  0  0  0  0  0  0  0  0  0  0  0
   10.8795   44.4959  128.8780 P   0  0  0  0  0  0  0  0  0  0  0  0
   10.8865   43.8874  127.2417 O   0  0  0  0  0  0  0  0  0  0  0  0
   10.6765   43.3531  129.8300 O   0  0  0  0  0  0  0  0  0  0  0  0
   10.5325   42.9970  127.2295 H   0  0  0  0  0  0  0  0  0  0  0  0
    9.6085   45.5499  128.9428 O   0  0  0  0  0  0  0  0  0  0  0  0
    8.1817   44.7427  129.4262 P   0  0  0  0  0  0  0  0  0  0  0  0
    7.9840   44.7187  131.0873 O   0  0  0  0  0  0  0  0  0  0  0  0
    8.2520   43.3441  128.9103 O   0  0  0  0  0  0  0  0  0  0  0  0
    7.3575   45.4136  131.4291 H   0  0  0  0  0  0  0  0  0  0  0  0
    6.9032   45.5586  128.6737 O   0  0  0  0  0  0  0  0  0  0  0  0
    6.8669   47.1902  129.1117 P   0  0  0  0  0  0  0  0  0  0  0  0
    5.5589   47.9776  128.3693 O   0  0  0  0  0  0  0  0  0  0  0  0
    8.2776   47.9585  128.5649 O   0  0  0  0  0  0  0  0  0  0  0  0
    6.7682   47.3047  130.6247 O   0  0  0  0  0  0  0  0  0  0  0  0
    4.6871   47.6419  128.7071 H   0  0  0  0  0  0  0  0  0  0  0  0
    8.7630   48.3870  129.3239 H   0  0  0  0  0  0  0  0  0  0  0  0
  1  2  1  0  0  0
  2  3  1  0  0  0
  3  4  1  0  0  0
  3  5  1  0  0  0
  5  6  1  0  0  0
  6  7  1  0  0  0
  7 19  1  0  0  0
 19 20  1  0  0  0
 20 21  1  0  0  0
 21 22  1  0  0  0
 21 23  2  0  0  0
 21 25  1  0  0  0
 25 26  1  0  0  0
 26 27  1  0  0  0
 26 28  2  0  0  0
 26 30  1  0  0  0
 30 31  1  0  0  0
 31 32  1  0  0  0
 31 33  1  0  0  0
 31 34  2  0  0  0
  5 10  1  0  0  0
 10 11  1  0  0  0
 11 12  2  0  0  0
 12 13  1  0  0  0
 13 14  2  0  0  0
 13 15  1  0  0  0
 15 16  1  0  0  0
 16 17  2  0  0  0
  7  2  1  0  0  0
 16 10  1  0  0  0
  1  8  1  0  0  0
  4  9  1  0  0  0
 22 24  1  0  0  0
 27 29  1  0  0  0
 32 35  1  0  0  0
 33 36  1  0  0  0
 15 18  1  0  0  0
M  END
> <minimizedAffinity>
6.35465

> <CNNscore>
0.4413397610

> <CNNaffinity>
5.9176349640

> <CNN_VS>
2.6116876602

> <CNNaffinity_variance>
6.5141577721

$$$$
[H]O[C@]1([H])[C@@]([H])(C([H])([H])OP(=O)(O[H])OP(=O)(O[H])OP(=O)(O[H])O[H])O[C@@]([H])(n2c([H])c([H])c(=O)n([H])c2=S)[C@]1([H])O[H]


 36 37  0  0  0  0  0  0  0  0999 V2000
   12.6983   44.7826  133.5675 O   0  0  0  0  0  0  0  0  0  0  0  0
   11.7147   45.7439  133.6256 C   0  0  0  0  0  0  0  0  0  0  0  0
   11.6889   46.6063  132.3428 C   0  0  0  0  0  0  0  0  0  0  0  0
   11.7189   45.5519  131.3565 O   0  0  0  0  0  0  0  0  0  0  0  0
   10.3941   47.1724  132.3577 C   0  0  0  0  0  0  0  0  0  0  0  0
    9.5913   46.3166  133.1797 O   0  0  0  0  0  0  0  0  0  0  0  0
   10.3199   45.2008  133.3795 C   0  0  0  0  0  0  0  0  0  0  0  0
   13.2157   44.8884  134.4277 H   0  0  0  0  0  0  0  0  0  0  0  0
   10.9209   45.6104  130.7747 H   0  0  0  0  0  0  0  0  0  0  0  0
    9.9761   48.4562  132.7673 N   0  0  0  0  0  0  0  0  0  0  0  0
   10.4778   49.4858  132.0667 C   0  0  0  0  0  0  0  0  0  0  0  0
   10.2356   50.7939  132.3357 C   0  0  0  0  0  0  0  0  0  0  0  0
    9.4116   51.1127  133.3970 C   0  0  0  0  0  0  0  0  0  0  0  0
    9.1606   52.3202  133.7161 O   0  0  0  0  0  0  0  0  0  0  0  0
    8.8897   50.0885  134.0898 N   0  0  0  0  0  0  0  0  0  0  0  0
    9.1869   48.7938  133.7553 C   0  0  0  0  0  0  0  0  0  0  0  0
    8.5693   47.6788  134.7095 S   0  0  0  0  0  0  0  0  0  0  0  0
    8.2364   50.3204  134.8651 H   0  0  0  0  0  0  0  0  0  0  0  0
    9.9343   44.2441  134.4365 C   0  0  0  0  0  0  0  0  0  0  0  0
    8.9529   43.3683  133.8878 O   0  0  0  0  0  0  0  0  0  0  0  0
    9.1646   43.3342  132.2086 P   0  0  0  0  0  0  0  0  0  0  0  0
    7.9938   44.4618  131.5719 O   0  0  0  0  0  0  0  0  0  0  0  0
   10.5408   43.7572  131.7836 O   0  0  0  0  0  0  0  0  0  0  0  0
    8.4019   44.9959  130.8889 H   0  0  0  0  0  0  0  0  0  0  0  0
    8.7654   41.8744  131.5452 O   0  0  0  0  0  0  0  0  0  0  0  0
    8.9417   41.9177  129.8457 P   0  0  0  0  0  0  0  0  0  0  0  0
    7.8903   42.9940  129.1142 O   0  0  0  0  0  0  0  0  0  0  0  0
    8.6906   40.5414  129.3261 O   0  0  0  0  0  0  0  0  0  0  0  0
    8.3045   43.8707  128.8864 H   0  0  0  0  0  0  0  0  0  0  0  0
   10.5528   42.3470  129.5519 O   0  0  0  0  0  0  0  0  0  0  0  0
   10.6763   43.9313  128.9773 P   0  0  0  0  0  0  0  0  0  0  0  0
   12.1977   44.5844  129.3524 O   0  0  0  0  0  0  0  0  0  0  0  0
    9.5197   44.9075  129.7445 O   0  0  0  0  0  0  0  0  0  0  0  0
   10.4480   43.9422  127.4740 O   0  0  0  0  0  0  0  0  0  0  0  0
   12.9284   44.1187  128.8664 H   0  0  0  0  0  0  0  0  0  0  0  0
    8.9296   45.3498  129.0727 H   0  0  0  0  0  0  0  0  0  0  0  0
  1  2  1  0  0  0
  2  3  1  0  0  0
  3  4  1  0  0  0
  3  5  1  0  0  0
  5  6  1  0  0  0
  6  7  1  0  0  0
  7 19  1  0  0  0
 19 20  1  0  0  0
 20 21  1  0  0  0
 21 22  1  0  0  0
 21 23  2  0  0  0
 21 25  1  0  0  0
 25 26  1  0  0  0
 26 27  1  0  0  0
 26 28  2  0  0  0
 26 30  1  0  0  0
 30 31  1  0  0  0
 31 32  1  0  0  0
 31 33  1  0  0  0
 31 34  2  0  0  0
  5 10  1  0  0  0
 10 11  1  0  0  0
 11 12  2  0  0  0
 12 13  1  0  0  0
 13 14  2  0  0  0
 13 15  1  0  0  0
 15 16  1  0  0  0
 16 17  2  0  0  0
  7  2  1  0  0  0
 16 10  1  0  0  0
  1  8  1  0  0  0
  4  9  1  0  0  0
 22 24  1  0  0  0
 27 29  1  0  0  0
 32 35  1  0  0  0
 33 36  1  0  0  0
 15 18  1  0  0  0
M  END
> <minimizedAffinity>
10.57537

> <CNNscore>
0.4384717643

> <CNNaffinity>
5.7162065506

> <CNN_VS>
2.5063951015

> <CNNaffinity_variance>
5.1421375275

$$$$
[H]c1nc2c(nc([H])c(=O)n2[H])c(Oc2c([H])c([H])c(N([H])C(=O)N([H])c3c([H])c(C(C([H])([H])[H])(C([H])([H])[H])C([H])([H])[H])nn3-c3c([H])c([H])c(OC([H])([H])[H])c([H])c3[H])c3c([H])c([H])c([H])c([H])c23)c1[H]


 46 51  0  0  0  0  0  0  0  0999 V2000
   10.4388   46.4656  129.7580 N   0  0  0  0  0  0  0  0  0  0  0  0
    9.7652   47.3304  130.6983 C   0  0  0  0  0  0  0  0  0  0  0  0
    9.9020   47.1370  131.8930 O   0  0  0  0  0  0  0  0  0  0  0  0
    8.9660   48.3641  130.2298 N   0  0  0  0  0  0  0  0  0  0  0  0
   10.2609   46.6962  128.7082 H   0  0  0  0  0  0  0  0  0  0  0  0
    8.2222   48.2872  131.3919 H   0  0  0  0  0  0  0  0  0  0  0  0
    8.1966   49.3587  129.7876 C   0  0  0  0  0  0  0  0  0  0  0  0
    8.7792   50.6119  129.4787 C   0  0  0  0  0  0  0  0  0  0  0  0
    8.0865   51.6345  128.9767 C   0  0  0  0  0  0  0  0  0  0  0  0
    6.7025   51.4941  128.7316 C   0  0  0  0  0  0  0  0  0  0  0  0
    6.1203   50.3179  129.0053 C   0  0  0  0  0  0  0  0  0  0  0  0
    4.7657   50.1760  128.7281 C   0  0  0  0  0  0  0  0  0  0  0  0
    4.1056   49.0037  128.9590 C   0  0  0  0  0  0  0  0  0  0  0  0
    4.8154   47.9544  129.4696 C   0  0  0  0  0  0  0  0  0  0  0  0
    6.1548   48.0855  129.7473 C   0  0  0  0  0  0  0  0  0  0  0  0
    6.8458   49.2547  129.5260 C   0  0  0  0  0  0  0  0  0  0  0  0
    6.1531   52.6561  128.2360 O   0  0  0  0  0  0  0  0  0  0  0  0
    6.6924   53.5496  127.3615 C   0  0  0  0  0  0  0  0  0  0  0  0
    8.0092   53.8241  127.1682 C   0  0  0  0  0  0  0  0  0  0  0  0
    8.4537   54.7689  126.2244 C   0  0  0  0  0  0  0  0  0  0  0  0
    7.5393   55.4009  125.5026 N   0  0  0  0  0  0  0  0  0  0  0  0
    6.2125   55.1624  125.6502 C   0  0  0  0  0  0  0  0  0  0  0  0
    5.3425   55.8100  124.8436 N   0  0  0  0  0  0  0  0  0  0  0  0
    4.0231   55.5740  124.9393 C   0  0  0  0  0  0  0  0  0  0  0  0
    3.2061   56.1614  124.1837 O   0  0  0  0  0  0  0  0  0  0  0  0
    3.5835   54.6372  125.8948 C   0  0  0  0  0  0  0  0  0  0  0  0
    4.4505   54.0000  126.6841 N   0  0  0  0  0  0  0  0  0  0  0  0
    5.7687   54.2522  126.5658 C   0  0  0  0  0  0  0  0  0  0  0  0
    5.6930   56.4946  124.1444 H   0  0  0  0  0  0  0  0  0  0  0  0
   11.3087   44.2054  130.5510 N   0  0  0  0  0  0  0  0  0  0  0  0
   12.4465   43.5448  130.2584 N   0  0  0  0  0  0  0  0  0  0  0  0
   13.2370   44.2505  129.4939 C   0  0  0  0  0  0  0  0  0  0  0  0
   12.5706   45.4415  129.2867 C   0  0  0  0  0  0  0  0  0  0  0  0
   11.3051   45.4121  129.9752 C   0  0  0  0  0  0  0  0  0  0  0  0
    8.4954   42.4767  133.2125 C   0  0  0  0  0  0  0  0  0  0  0  0
    8.1405   42.8970  131.9530 C   0  0  0  0  0  0  0  0  0  0  0  0
    9.0498   43.4332  131.0797 C   0  0  0  0  0  0  0  0  0  0  0  0
   10.3464   43.5748  131.3984 C   0  0  0  0  0  0  0  0  0  0  0  0
   10.7449   43.1409  132.6918 C   0  0  0  0  0  0  0  0  0  0  0  0
    9.8159   42.6019  133.5727 C   0  0  0  0  0  0  0  0  0  0  0  0
    6.4650   41.1808  133.5682 C   0  0  0  0  0  0  0  0  0  0  0  0
    7.5676   41.9450  134.1025 O   0  0  0  0  0  0  0  0  0  0  0  0
   14.5780   43.9211  128.8835 C   0  0  0  0  0  0  0  0  0  0  0  0
   15.4931   45.1432  128.9785 C   0  0  0  0  0  0  0  0  0  0  0  0
   15.2395   42.7917  129.6400 C   0  0  0  0  0  0  0  0  0  0  0  0
   14.4494   43.5288  127.4602 C   0  0  0  0  0  0  0  0  0  0  0  0
 41 42  1  0  0  0
 42 35  1  0  0  0
 35 36  2  0  0  0
 36 37  1  0  0  0
 37 38  2  0  0  0
 38 39  1  0  0  0
 39 40  2  0  0  0
 38 30  1  0  0  0
 30 31  1  0  0  0
 31 32  2  0  0  0
 32 33  1  0  0  0
 33 34  2  0  0  0
 34  1  1  0  0  0
  1  2  1  0  0  0
  2  3  2  0  0  0
  2  4  1  0  0  0
  4  7  1  0  0  0
  7  8  2  0  0  0
  8  9  1  0  0  0
  9 10  2  0  0  0
 10 17  1  0  0  0
 17 18  1  0  0  0
 18 19  2  0  0  0
 19 20  1  0  0  0
 20 21  2  0  0  0
 21 22  1  0  0  0
 22 23  1  0  0  0
 23 24  1  0  0  0
 24 25  2  0  0  0
 24 26  1  0  0  0
 26 27  2  0  0  0
 27 28  1  0  0  0
 10 11  1  0  0  0
 11 12  2  0  0  0
 12 13  1  0  0  0
 13 14  2  0  0  0
 14 15  1  0  0  0
 15 16  2  0  0  0
 32 43  1  0  0  0
 43 44  1  0  0  0
 43 45  1  0  0  0
 43 46  1  0  0  0
 40 35  1  0  0  0
 34 30  1  0  0  0
 16  7  1  0  0  0
 28 18  1  0  0  0
 16 11  1  0  0  0
 28 22  2  0  0  0
  1  5  1  0  0  0
  4  6  1  0  0  0
 23 29  1  0  0  0
M  END
> <minimizedAffinity>
23.82367

> <CNNscore>
0.5023787022

> <CNNaffinity>
7.4759187698

> <CNN_VS>
3.7557423115

> <CNNaffinity_variance>
1.5011243820

$$$$
[H]c1nc2c(nc([H])c(=O)n2[H])c(Oc2c([H])c([H])c(N([H])C(=O)N([H])c3c([H])c(C(C([H])([H])[H])(C([H])([H])[H])C([H])([H])[H])nn3-c3c([H])c([H])c(OC([H])([H])[H])c([H])c3[H])c3c([H])c([H])c([H])c([H])c23)c1[H]


 46 51  0  0  0  0  0  0  0  0999 V2000
    8.3716   46.1703  130.9439 N   0  0  0  0  0  0  0  0  0  0  0  0
    9.0852   47.4250  130.8998 C   0  0  0  0  0  0  0  0  0  0  0  0
   10.2240   47.4810  131.3284 O   0  0  0  0  0  0  0  0  0  0  0  0
    8.4634   48.5509  130.3779 N   0  0  0  0  0  0  0  0  0  0  0  0
    7.3561   46.2017  130.5506 H   0  0  0  0  0  0  0  0  0  0  0  0
    9.2657   49.3398  131.1801 H   0  0  0  0  0  0  0  0  0  0  0  0
    7.8727   49.6364  129.8784 C   0  0  0  0  0  0  0  0  0  0  0  0
    8.6451   50.7907  129.6023 C   0  0  0  0  0  0  0  0  0  0  0  0
    8.1381   51.8924  129.0482 C   0  0  0  0  0  0  0  0  0  0  0  0
    6.7674   51.9433  128.7106 C   0  0  0  0  0  0  0  0  0  0  0  0
    6.0086   50.8645  128.9511 C   0  0  0  0  0  0  0  0  0  0  0  0
    4.6689   50.9095  128.5834 C   0  0  0  0  0  0  0  0  0  0  0  0
    3.8366   49.8447  128.7760 C   0  0  0  0  0  0  0  0  0  0  0  0
    4.3562   48.7145  129.3399 C   0  0  0  0  0  0  0  0  0  0  0  0
    5.6793   48.6611  129.7072 C   0  0  0  0  0  0  0  0  0  0  0  0
    6.5411   49.7185  129.5263 C   0  0  0  0  0  0  0  0  0  0  0  0
    6.4212   53.1629  128.1717 O   0  0  0  0  0  0  0  0  0  0  0  0
    6.9348   53.7888  127.0771 C   0  0  0  0  0  0  0  0  0  0  0  0
    8.2371   53.8447  126.6928 C   0  0  0  0  0  0  0  0  0  0  0  0
    8.6537   54.5193  125.5299 C   0  0  0  0  0  0  0  0  0  0  0  0
    7.7261   55.1120  124.7917 N   0  0  0  0  0  0  0  0  0  0  0  0
    6.4120   55.0835  125.1250 C   0  0  0  0  0  0  0  0  0  0  0  0
    5.5189   55.6689  124.2964 N   0  0  0  0  0  0  0  0  0  0  0  0
    4.2055   55.6317  124.5779 C   0  0  0  0  0  0  0  0  0  0  0  0
    3.3648   56.1616  123.8060 O   0  0  0  0  0  0  0  0  0  0  0  0
    3.7961   54.9665  125.7500 C   0  0  0  0  0  0  0  0  0  0  0  0
    4.6850   54.3881  126.5599 N   0  0  0  0  0  0  0  0  0  0  0  0
    5.9961   54.4369  126.2531 C   0  0  0  0  0  0  0  0  0  0  0  0
    5.8469   56.1510  123.4358 H   0  0  0  0  0  0  0  0  0  0  0  0
    9.8796   44.1586  131.3603 N   0  0  0  0  0  0  0  0  0  0  0  0
    9.7058   43.0700  132.1356 N   0  0  0  0  0  0  0  0  0  0  0  0
    8.5232   43.0508  132.6910 C   0  0  0  0  0  0  0  0  0  0  0  0
    7.8940   44.1939  132.2405 C   0  0  0  0  0  0  0  0  0  0  0  0
    8.7827   44.9230  131.3718 C   0  0  0  0  0  0  0  0  0  0  0  0
   13.5895   44.4215  129.3221 C   0  0  0  0  0  0  0  0  0  0  0  0
   12.4090   44.8100  128.7350 C   0  0  0  0  0  0  0  0  0  0  0  0
   11.2111   44.7509  129.3969 C   0  0  0  0  0  0  0  0  0  0  0  0
   11.1172   44.3157  130.6637 C   0  0  0  0  0  0  0  0  0  0  0  0
   12.3232   43.9150  131.3001 C   0  0  0  0  0  0  0  0  0  0  0  0
   13.5332   43.9743  130.6206 C   0  0  0  0  0  0  0  0  0  0  0  0
   15.6814   43.3266  128.7276 C   0  0  0  0  0  0  0  0  0  0  0  0
   14.8030   44.4697  128.6434 O   0  0  0  0  0  0  0  0  0  0  0  0
    7.8972   42.0717  133.6548 C   0  0  0  0  0  0  0  0  0  0  0  0
    7.1694   42.8407  134.7588 C   0  0  0  0  0  0  0  0  0  0  0  0
    6.8771   41.2109  132.9452 C   0  0  0  0  0  0  0  0  0  0  0  0
    8.9138   41.1900  134.2758 C   0  0  0  0  0  0  0  0  0  0  0  0
 41 42  1  0  0  0
 42 35  1  0  0  0
 35 36  2  0  0  0
 36 37  1  0  0  0
 37 38  2  0  0  0
 38 39  1  0  0  0
 39 40  2  0  0  0
 38 30  1  0  0  0
 30 31  1  0  0  0
 31 32  2  0  0  0
 32 33  1  0  0  0
 33 34  2  0  0  0
 34  1  1  0  0  0
  1  2  1  0  0  0
  2  3  2  0  0  0
  2  4  1  0  0  0
  4  7  1  0  0  0
  7  8  2  0  0  0
  8  9  1  0  0  0
  9 10  2  0  0  0
 10 17  1  0  0  0
 17 18  1  0  0  0
 18 19  2  0  0  0
 19 20  1  0  0  0
 20 21  2  0  0  0
 21 22  1  0  0  0
 22 23  1  0  0  0
 23 24  1  0  0  0
 24 25  2  0  0  0
 24 26  1  0  0  0
 26 27  2  0  0  0
 27 28  1  0  0  0
 10 11  1  0  0  0
 11 12  2  0  0  0
 12 13  1  0  0  0
 13 14  2  0  0  0
 14 15  1  0  0  0
 15 16  2  0  0  0
 32 43  1  0  0  0
 43 44  1  0  0  0
 43 45  1  0  0  0
 43 46  1  0  0  0
 40 35  1  0  0  0
 34 30  1  0  0  0
 16  7  1  0  0  0
 28 18  1  0  0  0
 16 11  1  0  0  0
 28 22  2  0  0  0
  1  5  1  0  0  0
  4  6  1  0  0  0
 23 29  1  0  0  0
M  END
> <minimizedAffinity>
23.53206

> <CNNscore>
0.4858689308

> <CNNaffinity>
7.7368879318

> <CNN_VS>
3.7591135502

> <CNNaffinity_variance>
2.7521584034

$$$$
[H]c1nc2c(nc([H])c(=O)n2[H])c(Oc2c([H])c([H])c(N([H])C(=O)N([H])c3c([H])c(C(C([H])([H])[H])(C([H])([H])[H])C([H])([H])[H])nn3-c3c([H])c([H])c(OC([H])([H])[H])c([H])c3[H])c3c([H])c([H])c([H])c([H])c23)c1[H]


 46 51  0  0  0  0  0  0  0  0999 V2000
    7.0355   52.2585  126.3416 N   0  0  0  0  0  0  0  0  0  0  0  0
    7.0379   52.2765  127.7856 C   0  0  0  0  0  0  0  0  0  0  0  0
    6.9774   53.3430  128.3707 O   0  0  0  0  0  0  0  0  0  0  0  0
    7.1167   51.0814  128.4872 N   0  0  0  0  0  0  0  0  0  0  0  0
    7.1007   51.2686  125.8913 H   0  0  0  0  0  0  0  0  0  0  0  0
    7.7085   51.7604  129.5353 H   0  0  0  0  0  0  0  0  0  0  0  0
    7.1925   49.9379  129.1679 C   0  0  0  0  0  0  0  0  0  0  0  0
    6.5184   48.7893  128.6866 C   0  0  0  0  0  0  0  0  0  0  0  0
    6.5946   47.5971  129.2785 C   0  0  0  0  0  0  0  0  0  0  0  0
    7.3753   47.4393  130.4451 C   0  0  0  0  0  0  0  0  0  0  0  0
    8.0335   48.5049  130.9235 C   0  0  0  0  0  0  0  0  0  0  0  0
    8.8279   48.3334  132.0511 C   0  0  0  0  0  0  0  0  0  0  0  0
    9.5452   49.3643  132.5862 C   0  0  0  0  0  0  0  0  0  0  0  0
    9.4708   50.5849  131.9779 C   0  0  0  0  0  0  0  0  0  0  0  0
    8.6875   50.7640  130.8632 C   0  0  0  0  0  0  0  0  0  0  0  0
    7.9531   49.7442  130.3027 C   0  0  0  0  0  0  0  0  0  0  0  0
    7.3166   46.1498  130.9261 O   0  0  0  0  0  0  0  0  0  0  0  0
    8.1541   45.1063  130.6744 C   0  0  0  0  0  0  0  0  0  0  0  0
    8.2948   44.4229  129.5082 C   0  0  0  0  0  0  0  0  0  0  0  0
    9.2041   43.3587  129.3607 C   0  0  0  0  0  0  0  0  0  0  0  0
    9.9464   43.0286  130.4079 N   0  0  0  0  0  0  0  0  0  0  0  0
    9.8512   43.6797  131.5936 C   0  0  0  0  0  0  0  0  0  0  0  0
   10.6764   43.3183  132.6012 N   0  0  0  0  0  0  0  0  0  0  0  0
   10.6328   43.9631  133.7793 C   0  0  0  0  0  0  0  0  0  0  0  0
   11.4062   43.6434  134.7189 O   0  0  0  0  0  0  0  0  0  0  0  0
    9.7114   45.0184  133.9251 C   0  0  0  0  0  0  0  0  0  0  0  0
    8.9034   45.3706  132.9231 N   0  0  0  0  0  0  0  0  0  0  0  0
    8.9694   44.7100  131.7506 C   0  0  0  0  0  0  0  0  0  0  0  0
   11.3497   42.5376  132.4669 H   0  0  0  0  0  0  0  0  0  0  0  0
    6.0997   54.3054  125.1463 N   0  0  0  0  0  0  0  0  0  0  0  0
    6.6533   55.1218  124.2279 N   0  0  0  0  0  0  0  0  0  0  0  0
    7.8419   54.7155  123.8679 C   0  0  0  0  0  0  0  0  0  0  0  0
    8.0650   53.5630  124.5939 C   0  0  0  0  0  0  0  0  0  0  0  0
    6.9262   53.2950  125.4352 C   0  0  0  0  0  0  0  0  0  0  0  0
    2.2289   55.0359  126.7181 C   0  0  0  0  0  0  0  0  0  0  0  0
    3.1738   56.0296  126.6233 C   0  0  0  0  0  0  0  0  0  0  0  0
    4.4171   55.8056  126.0935 C   0  0  0  0  0  0  0  0  0  0  0  0
    4.7874   54.6020  125.6275 C   0  0  0  0  0  0  0  0  0  0  0  0
    3.8278   53.5564  125.7047 C   0  0  0  0  0  0  0  0  0  0  0  0
    2.5706   53.7907  126.2468 C   0  0  0  0  0  0  0  0  0  0  0  0
    0.0901   54.1333  127.4523 C   0  0  0  0  0  0  0  0  0  0  0  0
    0.9716   55.2623  127.2689 O   0  0  0  0  0  0  0  0  0  0  0  0
    8.8467   55.3152  122.9139 C   0  0  0  0  0  0  0  0  0  0  0  0
    9.5883   54.1926  122.1859 C   0  0  0  0  0  0  0  0  0  0  0  0
    8.1476   56.1562  121.8703 C   0  0  0  0  0  0  0  0  0  0  0  0
    9.8357   56.1615  123.6222 C   0  0  0  0  0  0  0  0  0  0  0  0
 41 42  1  0  0  0
 42 35  1  0  0  0
 35 36  2  0  0  0
 36 37  1  0  0  0
 37 38  2  0  0  0
 38 39  1  0  0  0
 39 40  2  0  0  0
 38 30  1  0  0  0
 30 31  1  0  0  0
 31 32  2  0  0  0
 32 33  1  0  0  0
 33 34  2  0  0  0
 34  1  1  0  0  0
  1  2  1  0  0  0
  2  3  2  0  0  0
  2  4  1  0  0  0
  4  7  1  0  0  0
  7  8  2  0  0  0
  8  9  1  0  0  0
  9 10  2  0  0  0
 10 17  1  0  0  0
 17 18  1  0  0  0
 18 19  2  0  0  0
 19 20  1  0  0  0
 20 21  2  0  0  0
 21 22  1  0  0  0
 22 23  1  0  0  0
 23 24  1  0  0  0
 24 25  2  0  0  0
 24 26  1  0  0  0
 26 27  2  0  0  0
 27 28  1  0  0  0
 10 11  1  0  0  0
 11 12  2  0  0  0
 12 13  1  0  0  0
 13 14  2  0  0  0
 14 15  1  0  0  0
 15 16  2  0  0  0
 32 43  1  0  0  0
 43 44  1  0  0  0
 43 45  1  0  0  0
 43 46  1  0  0  0
 40 35  1  0  0  0
 34 30  1  0  0  0
 16  7  1  0  0  0
 28 18  1  0  0  0
 16 11  1  0  0  0
 28 22  2  0  0  0
  1  5  1  0  0  0
  4  6  1  0  0  0
 23 29  1  0  0  0
M  END
> <minimizedAffinity>
4.21094

> <CNNscore>
0.4526441395

> <CNNaffinity>
7.9394683838

> <CNN_VS>
3.5937538147

> <CNNaffinity_variance>
0.6195989847

$$$$
[H]c1nc2c(nc([H])c(=O)n2[H])c(Oc2c([H])c([H])c(N([H])C(=O)N([H])c3c([H])c(C(C([H])([H])[H])(C([H])([H])[H])C([H])([H])[H])nn3-c3c([H])c([H])c(OC([H])([H])[H])c([H])c3[H])c3c([H])c([H])c([H])c([H])c23)c1[H]


 46 51  0  0  0  0  0  0  0  0999 V2000
    8.7038   45.9455  130.8538 N   0  0  0  0  0  0  0  0  0  0  0  0
    8.0986   46.3531  129.6075 C   0  0  0  0  0  0  0  0  0  0  0  0
    7.8033   45.5082  128.7814 O   0  0  0  0  0  0  0  0  0  0  0  0
    7.8685   47.7001  129.3638 N   0  0  0  0  0  0  0  0  0  0  0  0
    8.9471   46.7583  131.5373 H   0  0  0  0  0  0  0  0  0  0  0  0
    7.9681   47.4501  128.0084 H   0  0  0  0  0  0  0  0  0  0  0  0
    7.6447   48.9917  129.1226 C   0  0  0  0  0  0  0  0  0  0  0  0
    6.9082   49.3735  127.9749 C   0  0  0  0  0  0  0  0  0  0  0  0
    6.5936   50.6391  127.6976 C   0  0  0  0  0  0  0  0  0  0  0  0
    7.0015   51.6728  128.5696 C   0  0  0  0  0  0  0  0  0  0  0  0
    7.6937   51.3456  129.6702 C   0  0  0  0  0  0  0  0  0  0  0  0
    8.0607   52.3646  130.5414 C   0  0  0  0  0  0  0  0  0  0  0  0
    8.7483   52.1102  131.6930 C   0  0  0  0  0  0  0  0  0  0  0  0
    9.0676   50.8134  131.9796 C   0  0  0  0  0  0  0  0  0  0  0  0
    8.7095   49.7996  131.1239 C   0  0  0  0  0  0  0  0  0  0  0  0
    8.0175   50.0262  129.9563 C   0  0  0  0  0  0  0  0  0  0  0  0
    6.6068   52.9104  128.1112 O   0  0  0  0  0  0  0  0  0  0  0  0
    7.0809   53.6178  127.0488 C   0  0  0  0  0  0  0  0  0  0  0  0
    8.3708   53.7190  126.6334 C   0  0  0  0  0  0  0  0  0  0  0  0
    8.7454   54.4783  125.5090 C   0  0  0  0  0  0  0  0  0  0  0  0
    7.7896   55.1069  124.8396 N   0  0  0  0  0  0  0  0  0  0  0  0
    6.4860   55.0363  125.2064 C   0  0  0  0  0  0  0  0  0  0  0  0
    5.5622   55.6642  124.4455 N   0  0  0  0  0  0  0  0  0  0  0  0
    4.2580   55.5886  124.7600 C   0  0  0  0  0  0  0  0  0  0  0  0
    3.3889   56.1581  124.0503 O   0  0  0  0  0  0  0  0  0  0  0  0
    3.8908   54.8382  125.8941 C   0  0  0  0  0  0  0  0  0  0  0  0
    4.8098   54.2184  126.6370 N   0  0  0  0  0  0  0  0  0  0  0  0
    6.1108   54.3074  126.2980 C   0  0  0  0  0  0  0  0  0  0  0  0
    5.8593   56.2094  123.6117 H   0  0  0  0  0  0  0  0  0  0  0  0
   10.0336   43.8531  131.4436 N   0  0  0  0  0  0  0  0  0  0  0  0
    9.7168   42.7930  132.2131 N   0  0  0  0  0  0  0  0  0  0  0  0
    8.4871   42.8582  132.6503 C   0  0  0  0  0  0  0  0  0  0  0  0
    7.9784   44.0287  132.1246 C   0  0  0  0  0  0  0  0  0  0  0  0
    8.9915   44.6840  131.3370 C   0  0  0  0  0  0  0  0  0  0  0  0
   13.8632   44.2381  129.6622 C   0  0  0  0  0  0  0  0  0  0  0  0
   13.7081   44.0071  131.0082 C   0  0  0  0  0  0  0  0  0  0  0  0
   12.4746   43.8570  131.5851 C   0  0  0  0  0  0  0  0  0  0  0  0
   11.3403   43.9195  130.8693 C   0  0  0  0  0  0  0  0  0  0  0  0
   11.4697   44.1491  129.4727 C   0  0  0  0  0  0  0  0  0  0  0  0
   12.7239   44.3041  128.8961 C   0  0  0  0  0  0  0  0  0  0  0  0
   15.5415   43.4483  128.0850 C   0  0  0  0  0  0  0  0  0  0  0  0
   15.1162   44.4037  129.0807 O   0  0  0  0  0  0  0  0  0  0  0  0
    7.7099   41.9390  133.5616 C   0  0  0  0  0  0  0  0  0  0  0  0
    8.6762   40.9809  134.2604 C   0  0  0  0  0  0  0  0  0  0  0  0
    6.9975   42.7346  134.6316 C   0  0  0  0  0  0  0  0  0  0  0  0
    6.7073   41.1456  132.8122 C   0  0  0  0  0  0  0  0  0  0  0  0
 41 42  1  0  0  0
 42 35  1  0  0  0
 35 36  2  0  0  0
 36 37  1  0  0  0
 37 38  2  0  0  0
 38 39  1  0  0  0
 39 40  2  0  0  0
 38 30  1  0  0  0
 30 31  1  0  0  0
 31 32  2  0  0  0
 32 33  1  0  0  0
 33 34  2  0  0  0
 34  1  1  0  0  0
  1  2  1  0  0  0
  2  3  2  0  0  0
  2  4  1  0  0  0
  4  7  1  0  0  0
  7  8  2  0  0  0
  8  9  1  0  0  0
  9 10  2  0  0  0
 10 17  1  0  0  0
 17 18  1  0  0  0
 18 19  2  0  0  0
 19 20  1  0  0  0
 20 21  2  0  0  0
 21 22  1  0  0  0
 22 23  1  0  0  0
 23 24  1  0  0  0
 24 25  2  0  0  0
 24 26  1  0  0  0
 26 27  2  0  0  0
 27 28  1  0  0  0
 10 11  1  0  0  0
 11 12  2  0  0  0
 12 13  1  0  0  0
 13 14  2  0  0  0
 14 15  1  0  0  0
 15 16  2  0  0  0
 32 43  1  0  0  0
 43 44  1  0  0  0
 43 45  1  0  0  0
 43 46  1  0  0  0
 40 35  1  0  0  0
 34 30  1  0  0  0
 16  7  1  0  0  0
 28 18  1  0  0  0
 16 11  1  0  0  0
 28 22  2  0  0  0
  1  5  1  0  0  0
  4  6  1  0  0  0
 23 29  1  0  0  0
M  END
> <minimizedAffinity>
25.25754

> <CNNscore>
0.3861635327

> <CNNaffinity>
7.4091463089

> <CNN_VS>
2.8611421585

> <CNNaffinity_variance>
1.5887360573

$$$$
[H]c1nc2c(nc([H])c(=O)n2[H])c(Oc2c([H])c([H])c(N([H])C(=O)N([H])c3c([H])c(C(C([H])([H])[H])(C([H])([H])[H])C([H])([H])[H])nn3-c3c([H])c([H])c(OC([H])([H])[H])c([H])c3[H])c3c([H])c([H])c([H])c([H])c23)c1[H]


 46 51  0  0  0  0  0  0  0  0999 V2000
    7.0426   52.2632  126.3644 N   0  0  0  0  0  0  0  0  0  0  0  0
    7.0218   52.2958  127.8081 C   0  0  0  0  0  0  0  0  0  0  0  0
    6.9475   53.3680  128.3812 O   0  0  0  0  0  0  0  0  0  0  0  0
    7.0943   51.1083  128.5230 N   0  0  0  0  0  0  0  0  0  0  0  0
    7.1191   51.2691  125.9254 H   0  0  0  0  0  0  0  0  0  0  0  0
    7.6664   51.8004  129.5734 H   0  0  0  0  0  0  0  0  0  0  0  0
    7.1639   49.9721  129.2165 C   0  0  0  0  0  0  0  0  0  0  0  0
    6.4775   48.8239  128.7520 C   0  0  0  0  0  0  0  0  0  0  0  0
    6.5466   47.6380  129.3573 C   0  0  0  0  0  0  0  0  0  0  0  0
    7.3322   47.4869  130.5215 C   0  0  0  0  0  0  0  0  0  0  0  0
    8.0020   48.5522  130.9841 C   0  0  0  0  0  0  0  0  0  0  0  0
    8.8010   48.3868  132.1094 C   0  0  0  0  0  0  0  0  0  0  0  0
    9.5300   49.4176  132.6287 C   0  0  0  0  0  0  0  0  0  0  0  0
    9.4627   50.6318  132.0068 C   0  0  0  0  0  0  0  0  0  0  0  0
    8.6750   50.8048  130.8942 C   0  0  0  0  0  0  0  0  0  0  0  0
    7.9290   49.7849  130.3495 C   0  0  0  0  0  0  0  0  0  0  0  0
    7.2650   46.2036  131.0176 O   0  0  0  0  0  0  0  0  0  0  0  0
    8.2127   45.5008  131.6971 C   0  0  0  0  0  0  0  0  0  0  0  0
    8.1296   45.0121  132.9624 C   0  0  0  0  0  0  0  0  0  0  0  0
    9.1767   44.2888  133.5637 C   0  0  0  0  0  0  0  0  0  0  0  0
   10.2753   44.0819  132.8516 N   0  0  0  0  0  0  0  0  0  0  0  0
   10.4100   44.5421  131.5831 C   0  0  0  0  0  0  0  0  0  0  0  0
   11.5404   44.2491  130.9025 N   0  0  0  0  0  0  0  0  0  0  0  0
   11.6945   44.6605  129.6326 C   0  0  0  0  0  0  0  0  0  0  0  0
   12.7371   44.3812  128.9859 O   0  0  0  0  0  0  0  0  0  0  0  0
   10.6486   45.3953  129.0410 C   0  0  0  0  0  0  0  0  0  0  0  0
    9.5346   45.6763  129.7198 N   0  0  0  0  0  0  0  0  0  0  0  0
    9.4036   45.2493  130.9910 C   0  0  0  0  0  0  0  0  0  0  0  0
   12.2964   43.7025  131.3613 H   0  0  0  0  0  0  0  0  0  0  0  0
    6.1135   54.2890  125.1285 N   0  0  0  0  0  0  0  0  0  0  0  0
    6.6796   55.1025  124.2152 N   0  0  0  0  0  0  0  0  0  0  0  0
    7.8802   54.7053  123.8863 C   0  0  0  0  0  0  0  0  0  0  0  0
    8.0984   53.5620  124.6283 C   0  0  0  0  0  0  0  0  0  0  0  0
    6.9435   53.2900  125.4459 C   0  0  0  0  0  0  0  0  0  0  0  0
    2.1816   54.9636  126.5681 C   0  0  0  0  0  0  0  0  0  0  0  0
    3.1892   55.8805  126.7505 C   0  0  0  0  0  0  0  0  0  0  0  0
    4.4548   55.6794  126.2661 C   0  0  0  0  0  0  0  0  0  0  0  0
    4.7875   54.5762  125.5767 C   0  0  0  0  0  0  0  0  0  0  0  0
    3.7635   53.6136  125.3649 C   0  0  0  0  0  0  0  0  0  0  0  0
    2.4838   53.8233  125.8627 C   0  0  0  0  0  0  0  0  0  0  0  0
    0.2734   54.0845  127.7987 C   0  0  0  0  0  0  0  0  0  0  0  0
    0.9006   55.1637  127.0725 O   0  0  0  0  0  0  0  0  0  0  0  0
    8.9005   55.3065  122.9499 C   0  0  0  0  0  0  0  0  0  0  0  0
    9.8853   56.1593  123.7517 C   0  0  0  0  0  0  0  0  0  0  0  0
    9.6909   54.2177  122.2605 C   0  0  0  0  0  0  0  0  0  0  0  0
    8.2614   56.1563  121.9176 C   0  0  0  0  0  0  0  0  0  0  0  0
 41 42  1  0  0  0
 42 35  1  0  0  0
 35 36  2  0  0  0
 36 37  1  0  0  0
 37 38  2  0  0  0
 38 39  1  0  0  0
 39 40  2  0  0  0
 38 30  1  0  0  0
 30 31  1  0  0  0
 31 32  2  0  0  0
 32 33  1  0  0  0
 33 34  2  0  0  0
 34  1  1  0  0  0
  1  2  1  0  0  0
  2  3  2  0  0  0
  2  4  1  0  0  0
  4  7  1  0  0  0
  7  8  2  0  0  0
  8  9  1  0  0  0
  9 10  2  0  0  0
 10 17  1  0  0  0
 17 18  1  0  0  0
 18 19  2  0  0  0
 19 20  1  0  0  0
 20 21  2  0  0  0
 21 22  1  0  0  0
 22 23  1  0  0  0
 23 24  1  0  0  0
 24 25  2  0  0  0
 24 26  1  0  0  0
 26 27  2  0  0  0
 27 28  1  0  0  0
 10 11  1  0  0  0
 11 12  2  0  0  0
 12 13  1  0  0  0
 13 14  2  0  0  0
 14 15  1  0  0  0
 15 16  2  0  0  0
 32 43  1  0  0  0
 43 44  1  0  0  0
 43 45  1  0  0  0
 43 46  1  0  0  0
 40 35  1  0  0  0
 34 30  1  0  0  0
 16  7  1  0  0  0
 28 18  1  0  0  0
 16 11  1  0  0  0
 28 22  2  0  0  0
  1  5  1  0  0  0
  4  6  1  0  0  0
 23 29  1  0  0  0
M  END
> <minimizedAffinity>
4.67987

> <CNNscore>
0.3608903289

> <CNNaffinity>
7.8269371986

> <CNN_VS>
2.8246660233

> <CNNaffinity_variance>
0.5429175496

$$$$
[H]c1nc2c(nc([H])c(=O)n2[H])c(Oc2c([H])c([H])c(N([H])C(=O)N([H])c3c([H])c(C(C([H])([H])[H])(C([H])([H])[H])C([H])([H])[H])nn3-c3c([H])c([H])c(OC([H])([H])[H])c([H])c3[H])c3c([H])c([H])c([H])c([H])c23)c1[H]


 46 51  0  0  0  0  0  0  0  0999 V2000
    7.2286   52.5769  126.4114 N   0  0  0  0  0  0  0  0  0  0  0  0
    7.1053   52.7230  127.8429 C   0  0  0  0  0  0  0  0  0  0  0  0
    6.8036   53.8068  128.3098 O   0  0  0  0  0  0  0  0  0  0  0  0
    7.3389   51.6312  128.6674 N   0  0  0  0  0  0  0  0  0  0  0  0
    7.5096   51.5809  126.0708 H   0  0  0  0  0  0  0  0  0  0  0  0
    7.7072   52.4996  129.6773 H   0  0  0  0  0  0  0  0  0  0  0  0
    7.5621   50.5873  129.4657 C   0  0  0  0  0  0  0  0  0  0  0  0
    8.4703   50.7114  130.5451 C   0  0  0  0  0  0  0  0  0  0  0  0
    8.7012   49.7325  131.4204 C   0  0  0  0  0  0  0  0  0  0  0  0
    8.0248   48.4992  131.2914 C   0  0  0  0  0  0  0  0  0  0  0  0
    7.1515   48.3506  130.2851 C   0  0  0  0  0  0  0  0  0  0  0  0
    6.4635   47.1469  130.1858 C   0  0  0  0  0  0  0  0  0  0  0  0
    5.5432   46.9262  129.2021 C   0  0  0  0  0  0  0  0  0  0  0  0
    5.3033   47.9299  128.3073 C   0  0  0  0  0  0  0  0  0  0  0  0
    5.9791   49.1230  128.3972 C   0  0  0  0  0  0  0  0  0  0  0  0
    6.9124   49.3732  129.3769 C   0  0  0  0  0  0  0  0  0  0  0  0
    8.4054   47.6056  132.2682 O   0  0  0  0  0  0  0  0  0  0  0  0
    9.5887   46.9466  132.4075 C   0  0  0  0  0  0  0  0  0  0  0  0
   10.3739   46.8842  133.5150 C   0  0  0  0  0  0  0  0  0  0  0  0
   11.5812   46.1614  133.5458 C   0  0  0  0  0  0  0  0  0  0  0  0
   11.9472   45.5195  132.4455 N   0  0  0  0  0  0  0  0  0  0  0  0
   11.1998   45.5433  131.3142 C   0  0  0  0  0  0  0  0  0  0  0  0
   11.6132   44.8237  130.2474 N   0  0  0  0  0  0  0  0  0  0  0  0
   10.8811   44.7974  129.1209 C   0  0  0  0  0  0  0  0  0  0  0  0
   11.2501   44.1196  128.1271 O   0  0  0  0  0  0  0  0  0  0  0  0
    9.6805   45.5335  129.0918 C   0  0  0  0  0  0  0  0  0  0  0  0
    9.2787   46.2378  130.1516 N   0  0  0  0  0  0  0  0  0  0  0  0
   10.0296   46.2449  131.2703 C   0  0  0  0  0  0  0  0  0  0  0  0
   12.5019   44.2865  130.2957 H   0  0  0  0  0  0  0  0  0  0  0  0
    6.1030   54.4002  125.0321 N   0  0  0  0  0  0  0  0  0  0  0  0
    6.5617   55.1389  124.0024 N   0  0  0  0  0  0  0  0  0  0  0  0
    7.7630   54.7754  123.6389 C   0  0  0  0  0  0  0  0  0  0  0  0
    8.0959   53.7341  124.4817 C   0  0  0  0  0  0  0  0  0  0  0  0
    7.0111   53.4896  125.3979 C   0  0  0  0  0  0  0  0  0  0  0  0
    2.2320   55.0130  126.6530 C   0  0  0  0  0  0  0  0  0  0  0  0
    3.1795   56.0086  126.6388 C   0  0  0  0  0  0  0  0  0  0  0  0
    4.4229   55.8244  126.0942 C   0  0  0  0  0  0  0  0  0  0  0  0
    4.7908   54.6609  125.5340 C   0  0  0  0  0  0  0  0  0  0  0  0
    3.8285   53.6149  125.5265 C   0  0  0  0  0  0  0  0  0  0  0  0
    2.5712   53.8085  126.0843 C   0  0  0  0  0  0  0  0  0  0  0  0
    0.2597   54.0373  127.6953 C   0  0  0  0  0  0  0  0  0  0  0  0
    0.9745   55.1980  127.2188 O   0  0  0  0  0  0  0  0  0  0  0  0
    8.6861   55.3260  122.5786 C   0  0  0  0  0  0  0  0  0  0  0  0
    9.3268   54.1677  121.8119 C   0  0  0  0  0  0  0  0  0  0  0  0
    7.9109   56.1615  121.5855 C   0  0  0  0  0  0  0  0  0  0  0  0
    9.7589   56.1615  123.1680 C   0  0  0  0  0  0  0  0  0  0  0  0
 41 42  1  0  0  0
 42 35  1  0  0  0
 35 36  2  0  0  0
 36 37  1  0  0  0
 37 38  2  0  0  0
 38 39  1  0  0  0
 39 40  2  0  0  0
 38 30  1  0  0  0
 30 31  1  0  0  0
 31 32  2  0  0  0
 32 33  1  0  0  0
 33 34  2  0  0  0
 34  1  1  0  0  0
  1  2  1  0  0  0
  2  3  2  0  0  0
  2  4  1  0  0  0
  4  7  1  0  0  0
  7  8  2  0  0  0
  8  9  1  0  0  0
  9 10  2  0  0  0
 10 17  1  0  0  0
 17 18  1  0  0  0
 18 19  2  0  0  0
 19 20  1  0  0  0
 20 21  2  0  0  0
 21 22  1  0  0  0
 22 23  1  0  0  0
 23 24  1  0  0  0
 24 25  2  0  0  0
 24 26  1  0  0  0
 26 27  2  0  0  0
 27 28  1  0  0  0
 10 11  1  0  0  0
 11 12  2  0  0  0
 12 13  1  0  0  0
 13 14  2  0  0  0
 14 15  1  0  0  0
 15 16  2  0  0  0
 32 43  1  0  0  0
 43 44  1  0  0  0
 43 45  1  0  0  0
 43 46  1  0  0  0
 40 35  1  0  0  0
 34 30  1  0  0  0
 16  7  1  0  0  0
 28 18  1  0  0  0
 16 11  1  0  0  0
 28 22  2  0  0  0
  1  5  1  0  0  0
  4  6  1  0  0  0
 23 29  1  0  0  0
M  END
> <minimizedAffinity>
3.92758

> <CNNscore>
0.3477867246

> <CNNaffinity>
7.7525901794

> <CNN_VS>
2.6962480545

> <CNNaffinity_variance>
0.5883694887

$$$$
[H]c1nc2c(nc([H])c(=O)n2[H])c(Oc2c([H])c([H])c(N([H])C(=O)N([H])c3c([H])c(C(C([H])([H])[H])(C([H])([H])[H])C([H])([H])[H])nn3-c3c([H])c([H])c(OC([H])([H])[H])c([H])c3[H])c3c([H])c([H])c([H])c([H])c23)c1[H]


 46 51  0  0  0  0  0  0  0  0999 V2000
    6.2858   52.4029  127.1558 N   0  0  0  0  0  0  0  0  0  0  0  0
    6.8962   52.2043  128.4495 C   0  0  0  0  0  0  0  0  0  0  0  0
    7.0091   53.1498  129.2091 O   0  0  0  0  0  0  0  0  0  0  0  0
    7.3526   50.9433  128.8074 N   0  0  0  0  0  0  0  0  0  0  0  0
    6.2284   51.5128  126.5301 H   0  0  0  0  0  0  0  0  0  0  0  0
    8.2791   51.5387  129.6420 H   0  0  0  0  0  0  0  0  0  0  0  0
    7.7935   49.7353  129.1580 C   0  0  0  0  0  0  0  0  0  0  0  0
    7.5684   48.6306  128.3011 C   0  0  0  0  0  0  0  0  0  0  0  0
    8.0292   47.4053  128.5540 C   0  0  0  0  0  0  0  0  0  0  0  0
    8.7797   47.1638  129.7260 C   0  0  0  0  0  0  0  0  0  0  0  0
    9.0184   48.1896  130.5557 C   0  0  0  0  0  0  0  0  0  0  0  0
    9.7877   47.9518  131.6887 C   0  0  0  0  0  0  0  0  0  0  0  0
   10.0920   48.9482  132.5707 C   0  0  0  0  0  0  0  0  0  0  0  0
    9.6236   50.2045  132.3102 C   0  0  0  0  0  0  0  0  0  0  0  0
    8.8617   50.4489  131.1930 C   0  0  0  0  0  0  0  0  0  0  0  0
    8.5385   49.4645  130.2875 C   0  0  0  0  0  0  0  0  0  0  0  0
    9.1506   45.8412  129.8293 O   0  0  0  0  0  0  0  0  0  0  0  0
   10.3959   45.3141  129.9881 C   0  0  0  0  0  0  0  0  0  0  0  0
   11.3721   45.2042  129.0491 C   0  0  0  0  0  0  0  0  0  0  0  0
   12.6325   44.6447  129.3310 C   0  0  0  0  0  0  0  0  0  0  0  0
   12.8592   44.2192  130.5656 N   0  0  0  0  0  0  0  0  0  0  0  0
   11.9233   44.3091  131.5428 C   0  0  0  0  0  0  0  0  0  0  0  0
   12.2451   43.8993  132.7900 N   0  0  0  0  0  0  0  0  0  0  0  0
   11.3540   44.0039  133.7903 C   0  0  0  0  0  0  0  0  0  0  0  0
   11.6484   43.6380  134.9577 O   0  0  0  0  0  0  0  0  0  0  0  0
   10.0898   44.5524  133.4989 C   0  0  0  0  0  0  0  0  0  0  0  0
    9.7828   44.9580  132.2652 N   0  0  0  0  0  0  0  0  0  0  0  0
   10.6955   44.8451  131.2805 C   0  0  0  0  0  0  0  0  0  0  0  0
   13.1862   43.5006  132.9794 H   0  0  0  0  0  0  0  0  0  0  0  0
    6.0483   54.4999  125.7275 N   0  0  0  0  0  0  0  0  0  0  0  0
    4.9686   55.2517  125.4349 N   0  0  0  0  0  0  0  0  0  0  0  0
    3.9024   54.8409  126.0688 C   0  0  0  0  0  0  0  0  0  0  0  0
    4.3224   53.7624  126.8211 C   0  0  0  0  0  0  0  0  0  0  0  0
    5.7273   53.5350  126.5955 C   0  0  0  0  0  0  0  0  0  0  0  0
    9.6647   55.5623  123.7832 C   0  0  0  0  0  0  0  0  0  0  0  0
    9.3303   56.0623  125.0190 C   0  0  0  0  0  0  0  0  0  0  0  0
    8.1757   55.7036  125.6630 C   0  0  0  0  0  0  0  0  0  0  0  0
    7.3018   54.8352  125.1291 C   0  0  0  0  0  0  0  0  0  0  0  0
    7.6249   54.2947  123.8550 C   0  0  0  0  0  0  0  0  0  0  0  0
    8.7959   54.6666  123.2068 C   0  0  0  0  0  0  0  0  0  0  0  0
   10.7773   56.1415  121.6964 C   0  0  0  0  0  0  0  0  0  0  0  0
   10.8313   55.9384  123.1251 O   0  0  0  0  0  0  0  0  0  0  0  0
    2.4758   55.3337  126.0304 C   0  0  0  0  0  0  0  0  0  0  0  0
    1.5247   54.1357  126.0281 C   0  0  0  0  0  0  0  0  0  0  0  0
    2.1696   56.1612  127.2579 C   0  0  0  0  0  0  0  0  0  0  0  0
    2.2135   56.1555  124.8254 C   0  0  0  0  0  0  0  0  0  0  0  0
 41 42  1  0  0  0
 42 35  1  0  0  0
 35 36  2  0  0  0
 36 37  1  0  0  0
 37 38  2  0  0  0
 38 39  1  0  0  0
 39 40  2  0  0  0
 38 30  1  0  0  0
 30 31  1  0  0  0
 31 32  2  0  0  0
 32 33  1  0  0  0
 33 34  2  0  0  0
 34  1  1  0  0  0
  1  2  1  0  0  0
  2  3  2  0  0  0
  2  4  1  0  0  0
  4  7  1  0  0  0
  7  8  2  0  0  0
  8  9  1  0  0  0
  9 10  2  0  0  0
 10 17  1  0  0  0
 17 18  1  0  0  0
 18 19  2  0  0  0
 19 20  1  0  0  0
 20 21  2  0  0  0
 21 22  1  0  0  0
 22 23  1  0  0  0
 23 24  1  0  0  0
 24 25  2  0  0  0
 24 26  1  0  0  0
 26 27  2  0  0  0
 27 28  1  0  0  0
 10 11  1  0  0  0
 11 12  2  0  0  0
 12 13  1  0  0  0
 13 14  2  0  0  0
 14 15  1  0  0  0
 15 16  2  0  0  0
 32 43  1  0  0  0
 43 44  1  0  0  0
 43 45  1  0  0  0
 43 46  1  0  0  0
 40 35  1  0  0  0
 34 30  1  0  0  0
 16  7  1  0  0  0
 28 18  1  0  0  0
 16 11  1  0  0  0
 28 22  2  0  0  0
  1  5  1  0  0  0
  4  6  1  0  0  0
 23 29  1  0  0  0
M  END
> <minimizedAffinity>
8.36465

> <CNNscore>
0.3460892141

> <CNNaffinity>
7.9575867653

> <CNN_VS>
2.7540349960

> <CNNaffinity_variance>
0.7147797346

$$$$
[H]c1nc2c(nc([H])c(=O)n2[H])c(Oc2c([H])c([H])c(N([H])C(=O)N([H])c3c([H])c(C(C([H])([H])[H])(C([H])([H])[H])C([H])([H])[H])nn3-c3c([H])c([H])c(OC([H])([H])[H])c([H])c3[H])c3c([H])c([H])c([H])c([H])c23)c1[H]


 46 51  0  0  0  0  0  0  0  0999 V2000
   10.0891   48.0013  132.6361 N   0  0  0  0  0  0  0  0  0  0  0  0
   10.1700   48.2339  131.2130 C   0  0  0  0  0  0  0  0  0  0  0  0
   11.0683   47.7176  130.5727 O   0  0  0  0  0  0  0  0  0  0  0  0
    9.2300   49.0472  130.5955 N   0  0  0  0  0  0  0  0  0  0  0  0
    9.2642   48.5034  133.1406 H   0  0  0  0  0  0  0  0  0  0  0  0
   10.1651   49.3558  129.6260 H   0  0  0  0  0  0  0  0  0  0  0  0
    8.3311   49.8273  129.9954 C   0  0  0  0  0  0  0  0  0  0  0  0
    8.6749   51.1572  129.6514 C   0  0  0  0  0  0  0  0  0  0  0  0
    7.8519   51.9778  128.9981 C   0  0  0  0  0  0  0  0  0  0  0  0
    6.5671   51.5302  128.6184 C   0  0  0  0  0  0  0  0  0  0  0  0
    6.2120   50.2734  128.9214 C   0  0  0  0  0  0  0  0  0  0  0  0
    4.9599   49.8288  128.5132 C   0  0  0  0  0  0  0  0  0  0  0  0
    4.5335   48.5567  128.7652 C   0  0  0  0  0  0  0  0  0  0  0  0
    5.3777   47.7143  129.4309 C   0  0  0  0  0  0  0  0  0  0  0  0
    6.6171   48.1452  129.8389 C   0  0  0  0  0  0  0  0  0  0  0  0
    7.0729   49.4214  129.6000 C   0  0  0  0  0  0  0  0  0  0  0  0
    5.8536   52.5177  127.9755 O   0  0  0  0  0  0  0  0  0  0  0  0
    6.3157   53.5373  127.2005 C   0  0  0  0  0  0  0  0  0  0  0  0
    7.6050   53.9383  127.0459 C   0  0  0  0  0  0  0  0  0  0  0  0
    7.9683   55.0079  126.2063 C   0  0  0  0  0  0  0  0  0  0  0  0
    7.0037   55.6321  125.5456 N   0  0  0  0  0  0  0  0  0  0  0  0
    5.7016   55.2706  125.6582 C   0  0  0  0  0  0  0  0  0  0  0  0
    4.7799   55.9224  124.9149 N   0  0  0  0  0  0  0  0  0  0  0  0
    3.4848   55.5694  124.9762 C   0  0  0  0  0  0  0  0  0  0  0  0
    2.6210   56.1608  124.2780 O   0  0  0  0  0  0  0  0  0  0  0  0
    3.1257   54.5069  125.8283 C   0  0  0  0  0  0  0  0  0  0  0  0
    4.0435   53.8667  126.5553 N   0  0  0  0  0  0  0  0  0  0  0  0
    5.3360   54.2382  126.4732 C   0  0  0  0  0  0  0  0  0  0  0  0
    5.0715   56.7015  124.2915 H   0  0  0  0  0  0  0  0  0  0  0  0
   10.9787   45.9320  133.8281 N   0  0  0  0  0  0  0  0  0  0  0  0
   12.1046   45.7406  134.5437 N   0  0  0  0  0  0  0  0  0  0  0  0
   12.7872   46.8460  134.6834 C   0  0  0  0  0  0  0  0  0  0  0  0
   12.0526   47.8101  134.0230 C   0  0  0  0  0  0  0  0  0  0  0  0
   10.8694   47.2122  133.4584 C   0  0  0  0  0  0  0  0  0  0  0  0
    8.5113   42.5230  133.3013 C   0  0  0  0  0  0  0  0  0  0  0  0
    7.9979   43.7389  133.6848 C   0  0  0  0  0  0  0  0  0  0  0  0
    8.7862   44.8496  133.8323 C   0  0  0  0  0  0  0  0  0  0  0  0
   10.1091   44.8204  133.6045 C   0  0  0  0  0  0  0  0  0  0  0  0
   10.6673   43.5781  133.1983 C   0  0  0  0  0  0  0  0  0  0  0  0
    9.8618   42.4556  133.0548 C   0  0  0  0  0  0  0  0  0  0  0  0
    6.4305   41.3755  133.8325 C   0  0  0  0  0  0  0  0  0  0  0  0
    7.7110   41.3931  133.1652 O   0  0  0  0  0  0  0  0  0  0  0  0
   14.1108   47.1142  135.3585 C   0  0  0  0  0  0  0  0  0  0  0  0
   15.1319   47.5654  134.3127 C   0  0  0  0  0  0  0  0  0  0  0  0
   13.9704   48.2259  136.3732 C   0  0  0  0  0  0  0  0  0  0  0  0
   14.6293   45.9071  136.0443 C   0  0  0  0  0  0  0  0  0  0  0  0
 41 42  1  0  0  0
 42 35  1  0  0  0
 35 36  2  0  0  0
 36 37  1  0  0  0
 37 38  2  0  0  0
 38 39  1  0  0  0
 39 40  2  0  0  0
 38 30  1  0  0  0
 30 31  1  0  0  0
 31 32  2  0  0  0
 32 33  1  0  0  0
 33 34  2  0  0  0
 34  1  1  0  0  0
  1  2  1  0  0  0
  2  3  2  0  0  0
  2  4  1  0  0  0
  4  7  1  0  0  0
  7  8  2  0  0  0
  8  9  1  0  0  0
  9 10  2  0  0  0
 10 17  1  0  0  0
 17 18  1  0  0  0
 18 19  2  0  0  0
 19 20  1  0  0  0
 20 21  2  0  0  0
 21 22  1  0  0  0
 22 23  1  0  0  0
 23 24  1  0  0  0
 24 25  2  0  0  0
 24 26  1  0  0  0
 26 27  2  0  0  0
 27 28  1  0  0  0
 10 11  1  0  0  0
 11 12  2  0  0  0
 12 13  1  0  0  0
 13 14  2  0  0  0
 14 15  1  0  0  0
 15 16  2  0  0  0
 32 43  1  0  0  0
 43 44  1  0  0  0
 43 45  1  0  0  0
 43 46  1  0  0  0
 40 35  1  0  0  0
 34 30  1  0  0  0
 16  7  1  0  0  0
 28 18  1  0  0  0
 16 11  1  0  0  0
 28 22  2  0  0  0
  1  5  1  0  0  0
  4  6  1  0  0  0
 23 29  1  0  0  0
M  END
> <minimizedAffinity>
32.91413

> <CNNscore>
0.3424609601

> <CNNaffinity>
7.0589089394

> <CNN_VS>
2.4174008369

> <CNNaffinity_variance>
0.8673250079

$$$$
[H]c1nc2c(nc([H])c(=O)n2[H])c(Oc2c([H])c([H])c(N([H])C(=O)N([H])c3c([H])c(C(C([H])([H])[H])(C([H])([H])[H])C([H])([H])[H])nn3-c3c([H])c([H])c(OC([H])([H])[H])c([H])c3[H])c3c([H])c([H])c([H])c([H])c23)c1[H]


 46 51  0  0  0  0  0  0  0  0999 V2000
    9.0224   46.8748  131.4841 N   0  0  0  0  0  0  0  0  0  0  0  0
    9.5300   48.2143  131.3005 C   0  0  0  0  0  0  0  0  0  0  0  0
   10.6407   48.4950  131.7141 O   0  0  0  0  0  0  0  0  0  0  0  0
    8.7448   49.1651  130.6632 N   0  0  0  0  0  0  0  0  0  0  0  0
    8.0191   46.7032  131.0954 H   0  0  0  0  0  0  0  0  0  0  0  0
    9.4036   50.1525  131.3708 H   0  0  0  0  0  0  0  0  0  0  0  0
    7.9964   50.0836  130.0525 C   0  0  0  0  0  0  0  0  0  0  0  0
    8.5576   51.3425  129.7278 C   0  0  0  0  0  0  0  0  0  0  0  0
    7.8917   52.2891  129.0657 C   0  0  0  0  0  0  0  0  0  0  0  0
    6.5599   52.0570  128.6562 C   0  0  0  0  0  0  0  0  0  0  0  0
    6.0004   50.8723  128.9404 C   0  0  0  0  0  0  0  0  0  0  0  0
    4.7019   50.6382  128.5031 C   0  0  0  0  0  0  0  0  0  0  0  0
    4.0707   49.4501  128.7347 C   0  0  0  0  0  0  0  0  0  0  0  0
    4.7536   48.4786  129.4094 C   0  0  0  0  0  0  0  0  0  0  0  0
    6.0373   48.7012  129.8462 C   0  0  0  0  0  0  0  0  0  0  0  0
    6.6980   49.8884  129.6282 C   0  0  0  0  0  0  0  0  0  0  0  0
    6.0289   53.1506  128.0084 O   0  0  0  0  0  0  0  0  0  0  0  0
    6.6010   53.9403  127.0582 C   0  0  0  0  0  0  0  0  0  0  0  0
    7.9244   54.1954  126.8837 C   0  0  0  0  0  0  0  0  0  0  0  0
    8.4045   55.0279  125.8553 C   0  0  0  0  0  0  0  0  0  0  0  0
    7.5180   55.5703  125.0328 N   0  0  0  0  0  0  0  0  0  0  0  0
    6.1865   55.3458  125.1575 C   0  0  0  0  0  0  0  0  0  0  0  0
    5.3476   55.8942  124.2506 N   0  0  0  0  0  0  0  0  0  0  0  0
    4.0253   55.6663  124.3237 C   0  0  0  0  0  0  0  0  0  0  0  0
    3.2374   56.1609  123.4764 O   0  0  0  0  0  0  0  0  0  0  0  0
    3.5497   54.8431  125.3630 C   0  0  0  0  0  0  0  0  0  0  0  0
    4.3862   54.3030  126.2514 N   0  0  0  0  0  0  0  0  0  0  0  0
    5.7082   54.5445  126.1539 C   0  0  0  0  0  0  0  0  0  0  0  0
    5.7244   56.4958  123.4913 H   0  0  0  0  0  0  0  0  0  0  0  0
   10.4350   45.4495  133.0549 N   0  0  0  0  0  0  0  0  0  0  0  0
   10.5082   44.1126  133.2088 N   0  0  0  0  0  0  0  0  0  0  0  0
    9.7675   43.4804  132.3376 C   0  0  0  0  0  0  0  0  0  0  0  0
    9.1867   44.4705  131.5710 C   0  0  0  0  0  0  0  0  0  0  0  0
    9.6197   45.7615  132.0422 C   0  0  0  0  0  0  0  0  0  0  0  0
   12.8610   47.9570  135.4660 C   0  0  0  0  0  0  0  0  0  0  0  0
   11.5269   48.2162  135.2613 C   0  0  0  0  0  0  0  0  0  0  0  0
   10.7324   47.3964  134.5041 C   0  0  0  0  0  0  0  0  0  0  0  0
   11.2071   46.2843  133.9202 C   0  0  0  0  0  0  0  0  0  0  0  0
   12.5820   45.9857  134.1212 C   0  0  0  0  0  0  0  0  0  0  0  0
   13.3817   46.8243  134.8872 C   0  0  0  0  0  0  0  0  0  0  0  0
   14.8481   48.2407  136.8442 C   0  0  0  0  0  0  0  0  0  0  0  0
   13.6691   48.7983  136.2243 O   0  0  0  0  0  0  0  0  0  0  0  0
    9.5014   42.0063  132.1480 C   0  0  0  0  0  0  0  0  0  0  0  0
    8.6915   41.7973  130.8673 C   0  0  0  0  0  0  0  0  0  0  0  0
   10.8017   41.2500  131.9979 C   0  0  0  0  0  0  0  0  0  0  0  0
    8.7482   41.4354  133.2894 C   0  0  0  0  0  0  0  0  0  0  0  0
 41 42  1  0  0  0
 42 35  1  0  0  0
 35 36  2  0  0  0
 36 37  1  0  0  0
 37 38  2  0  0  0
 38 39  1  0  0  0
 39 40  2  0  0  0
 38 30  1  0  0  0
 30 31  1  0  0  0
 31 32  2  0  0  0
 32 33  1  0  0  0
 33 34  2  0  0  0
 34  1  1  0  0  0
  1  2  1  0  0  0
  2  3  2  0  0  0
  2  4  1  0  0  0
  4  7  1  0  0  0
  7  8  2  0  0  0
  8  9  1  0  0  0
  9 10  2  0  0  0
 10 17  1  0  0  0
 17 18  1  0  0  0
 18 19  2  0  0  0
 19 20  1  0  0  0
 20 21  2  0  0  0
 21 22  1  0  0  0
 22 23  1  0  0  0
 23 24  1  0  0  0
 24 25  2  0  0  0
 24 26  1  0  0  0
 26 27  2  0  0  0
 27 28  1  0  0  0
 10 11  1  0  0  0
 11 12  2  0  0  0
 12 13  1  0  0  0
 13 14  2  0  0  0
 14 15  1  0  0  0
 15 16  2  0  0  0
 32 43  1  0  0  0
 43 44  1  0  0  0
 43 45  1  0  0  0
 43 46  1  0  0  0
 40 35  1  0  0  0
 34 30  1  0  0  0
 16  7  1  0  0  0
 28 18  1  0  0  0
 16 11  1  0  0  0
 28 22  2  0  0  0
  1  5  1  0  0  0
  4  6  1  0  0  0
 23 29  1  0  0  0
M  END
> <minimizedAffinity>
24.98846

> <CNNscore>
0.3384777308

> <CNNaffinity>
7.4855942726

> <CNN_VS>
2.5337069035

> <CNNaffinity_variance>
1.7409152985

$$$$
[H]c1nc2c(c([H])c1[H])c(C1=C(c3nc(N4C([H])([H])C([H])([H])N(C([H])([H])[H])C([H])([H])C4([H])[H])nc4c([H])c([H])c(F)c([H])c34)C(=O)N([H])C1=O)c([H])n2[H]


 36 41  0  0  0  0  0  0  0  0999 V2000
   10.4307   45.9512  132.7785 C   0  0  0  0  0  0  0  0  0  0  0  0
    9.6582   46.3068  131.7452 N   0  0  0  0  0  0  0  0  0  0  0  0
    9.2997   47.6052  131.5294 C   0  0  0  0  0  0  0  0  0  0  0  0
    9.7427   48.5586  132.3961 C   0  0  0  0  0  0  0  0  0  0  0  0
    9.4318   49.8934  132.3089 C   0  0  0  0  0  0  0  0  0  0  0  0
    9.8903   50.8395  133.2320 C   0  0  0  0  0  0  0  0  0  0  0  0
    9.5739   52.1529  133.1291 F   0  0  0  0  0  0  0  0  0  0  0  0
   10.6817   50.4366  134.2729 C   0  0  0  0  0  0  0  0  0  0  0  0
   11.0147   49.1160  134.4007 C   0  0  0  0  0  0  0  0  0  0  0  0
   10.5531   48.2056  133.4835 C   0  0  0  0  0  0  0  0  0  0  0  0
   10.8561   46.9036  133.6153 N   0  0  0  0  0  0  0  0  0  0  0  0
    8.4482   47.9621  130.4115 C   0  0  0  0  0  0  0  0  0  0  0  0
    8.4043   47.4099  129.2013 C   0  0  0  0  0  0  0  0  0  0  0  0
    7.3948   48.1149  128.4319 C   0  0  0  0  0  0  0  0  0  0  0  0
    7.0601   47.8749  127.2294 O   0  0  0  0  0  0  0  0  0  0  0  0
    6.8254   49.1294  129.2396 N   0  0  0  0  0  0  0  0  0  0  0  0
    7.4771   49.0500  130.4954 C   0  0  0  0  0  0  0  0  0  0  0  0
    7.2112   49.8158  131.4619 O   0  0  0  0  0  0  0  0  0  0  0  0
    6.0598   49.8089  128.9466 H   0  0  0  0  0  0  0  0  0  0  0  0
    9.1784   46.2399  128.7431 C   0  0  0  0  0  0  0  0  0  0  0  0
   10.2107   46.2745  127.8032 C   0  0  0  0  0  0  0  0  0  0  0  0
   10.6724   45.0256  127.6202 N   0  0  0  0  0  0  0  0  0  0  0  0
    9.9898   44.1557  128.3997 C   0  0  0  0  0  0  0  0  0  0  0  0
   10.0684   42.8257  128.5675 N   0  0  0  0  0  0  0  0  0  0  0  0
    9.2747   42.1379  129.4012 C   0  0  0  0  0  0  0  0  0  0  0  0
    8.3405   42.8585  130.1075 C   0  0  0  0  0  0  0  0  0  0  0  0
    8.2336   44.2280  129.9581 C   0  0  0  0  0  0  0  0  0  0  0  0
    9.0561   44.9220  129.0995 C   0  0  0  0  0  0  0  0  0  0  0  0
   11.4532   44.7061  126.9748 H   0  0  0  0  0  0  0  0  0  0  0  0
   11.4347   40.6525  132.3696 C   0  0  0  0  0  0  0  0  0  0  0  0
   10.9880   41.9824  132.1605 N   0  0  0  0  0  0  0  0  0  0  0  0
   11.9230   42.9208  131.6974 C   0  0  0  0  0  0  0  0  0  0  0  0
   12.1074   44.1532  132.5313 C   0  0  0  0  0  0  0  0  0  0  0  0
   10.8127   44.6099  133.0203 N   0  0  0  0  0  0  0  0  0  0  0  0
   10.0126   43.6415  133.7213 C   0  0  0  0  0  0  0  0  0  0  0  0
    9.8715   42.4100  132.8989 C   0  0  0  0  0  0  0  0  0  0  0  0
 30 31  1  0  0  0
 31 32  1  0  0  0
 32 33  1  0  0  0
 33 34  1  0  0  0
 34 35  1  0  0  0
 35 36  1  0  0  0
 34  1  1  0  0  0
  1  2  2  0  0  0
  2  3  1  0  0  0
  3 12  1  0  0  0
 12 13  2  0  0  0
 13 14  1  0  0  0
 14 15  2  0  0  0
 14 16  1  0  0  0
 16 17  1  0  0  0
 17 18  2  0  0  0
 13 20  1  0  0  0
 20 21  2  0  0  0
 21 22  1  0  0  0
 22 23  1  0  0  0
 23 24  2  0  0  0
 24 25  1  0  0  0
 25 26  2  0  0  0
 26 27  1  0  0  0
 27 28  2  0  0  0
  3  4  2  0  0  0
  4  5  1  0  0  0
  5  6  2  0  0  0
  6  7  1  0  0  0
  6  8  1  0  0  0
  8  9  2  0  0  0
  9 10  1  0  0  0
 10 11  2  0  0  0
 36 31  1  0  0  0
 11  1  1  0  0  0
 17 12  1  0  0  0
 28 20  1  0  0  0
 10  4  1  0  0  0
 28 23  1  0  0  0
 16 19  1  0  0  0
 22 29  1  0  0  0
M  END
> <minimizedAffinity>
4.72750

> <CNNscore>
0.5031359792

> <CNNaffinity>
7.9343519211

> <CNN_VS>
3.9920580387

> <CNNaffinity_variance>
0.2997899055

$$$$
[H]c1nc2c(c([H])c1[H])c(C1=C(c3nc(N4C([H])([H])C([H])([H])N(C([H])([H])[H])C([H])([H])C4([H])[H])nc4c([H])c([H])c(F)c([H])c34)C(=O)N([H])C1=O)c([H])n2[H]


 36 41  0  0  0  0  0  0  0  0999 V2000
    9.5781   44.5776  131.4657 C   0  0  0  0  0  0  0  0  0  0  0  0
    8.6802   45.5466  131.2520 N   0  0  0  0  0  0  0  0  0  0  0  0
    8.5216   46.1215  130.0251 C   0  0  0  0  0  0  0  0  0  0  0  0
    9.3049   45.6929  128.9959 C   0  0  0  0  0  0  0  0  0  0  0  0
    9.2656   46.2064  127.7229 C   0  0  0  0  0  0  0  0  0  0  0  0
   10.1021   45.7528  126.6973 C   0  0  0  0  0  0  0  0  0  0  0  0
   10.0482   46.2710  125.4466 F   0  0  0  0  0  0  0  0  0  0  0  0
   11.0047   44.7573  126.9548 C   0  0  0  0  0  0  0  0  0  0  0  0
   11.0805   44.2178  128.2097 C   0  0  0  0  0  0  0  0  0  0  0  0
   10.2502   44.6788  129.2002 C   0  0  0  0  0  0  0  0  0  0  0  0
   10.3348   44.1709  130.4408 N   0  0  0  0  0  0  0  0  0  0  0  0
    7.5525   47.1810  129.8237 C   0  0  0  0  0  0  0  0  0  0  0  0
    7.5701   48.4170  130.3169 C   0  0  0  0  0  0  0  0  0  0  0  0
    6.3827   49.1001  129.8357 C   0  0  0  0  0  0  0  0  0  0  0  0
    6.0486   50.2999  130.0898 O   0  0  0  0  0  0  0  0  0  0  0  0
    5.6383   48.2116  129.0219 N   0  0  0  0  0  0  0  0  0  0  0  0
    6.3605   46.9926  129.0009 C   0  0  0  0  0  0  0  0  0  0  0  0
    5.9781   45.9735  128.3633 O   0  0  0  0  0  0  0  0  0  0  0  0
    4.7199   48.4314  128.5300 H   0  0  0  0  0  0  0  0  0  0  0  0
    8.6398   49.0185  131.1367 C   0  0  0  0  0  0  0  0  0  0  0  0
    9.4325   50.1036  130.7568 C   0  0  0  0  0  0  0  0  0  0  0  0
   10.3087   50.3661  131.7416 N   0  0  0  0  0  0  0  0  0  0  0  0
   10.1348   49.4995  132.7657 C   0  0  0  0  0  0  0  0  0  0  0  0
   10.7537   49.3480  133.9478 N   0  0  0  0  0  0  0  0  0  0  0  0
   10.4279   48.3980  134.8363 C   0  0  0  0  0  0  0  0  0  0  0  0
    9.4028   47.5487  134.4916 C   0  0  0  0  0  0  0  0  0  0  0  0
    8.7452   47.6775  133.2832 C   0  0  0  0  0  0  0  0  0  0  0  0
    9.0892   48.6585  132.3806 C   0  0  0  0  0  0  0  0  0  0  0  0
   11.0503   51.1260  131.7703 H   0  0  0  0  0  0  0  0  0  0  0  0
   11.2353   43.2826  136.4485 C   0  0  0  0  0  0  0  0  0  0  0  0
   11.0993   43.8415  135.1519 N   0  0  0  0  0  0  0  0  0  0  0  0
   10.1138   44.8226  134.9632 C   0  0  0  0  0  0  0  0  0  0  0  0
    9.1005   44.5591  133.8899 C   0  0  0  0  0  0  0  0  0  0  0  0
    9.7589   43.9695  132.7310 N   0  0  0  0  0  0  0  0  0  0  0  0
   10.5549   42.7959  132.9723 C   0  0  0  0  0  0  0  0  0  0  0  0
   11.5283   43.0598  134.0659 C   0  0  0  0  0  0  0  0  0  0  0  0
 30 31  1  0  0  0
 31 32  1  0  0  0
 32 33  1  0  0  0
 33 34  1  0  0  0
 34 35  1  0  0  0
 35 36  1  0  0  0
 34  1  1  0  0  0
  1  2  2  0  0  0
  2  3  1  0  0  0
  3 12  1  0  0  0
 12 13  2  0  0  0
 13 14  1  0  0  0
 14 15  2  0  0  0
 14 16  1  0  0  0
 16 17  1  0  0  0
 17 18  2  0  0  0
 13 20  1  0  0  0
 20 21  2  0  0  0
 21 22  1  0  0  0
 22 23  1  0  0  0
 23 24  2  0  0  0
 24 25  1  0  0  0
 25 26  2  0  0  0
 26 27  1  0  0  0
 27 28  2  0  0  0
  3  4  2  0  0  0
  4  5  1  0  0  0
  5  6  2  0  0  0
  6  7  1  0  0  0
  6  8  1  0  0  0
  8  9  2  0  0  0
  9 10  1  0  0  0
 10 11  2  0  0  0
 36 31  1  0  0  0
 11  1  1  0  0  0
 17 12  1  0  0  0
 28 20  1  0  0  0
 10  4  1  0  0  0
 28 23  1  0  0  0
 16 19  1  0  0  0
 22 29  1  0  0  0
M  END
> <minimizedAffinity>
7.32605

> <CNNscore>
0.4616339505

> <CNNaffinity>
8.0480651855

> <CNN_VS>
3.7152600288

> <CNNaffinity_variance>
0.8271058798

$$$$
[H]c1nc2c(c([H])c1[H])c(C1=C(c3nc(N4C([H])([H])C([H])([H])N(C([H])([H])[H])C([H])([H])C4([H])[H])nc4c([H])c([H])c(F)c([H])c34)C(=O)N([H])C1=O)c([H])n2[H]


 36 41  0  0  0  0  0  0  0  0999 V2000
   10.1399   44.8542  132.6539 C   0  0  0  0  0  0  0  0  0  0  0  0
    9.6354   45.9468  132.0685 N   0  0  0  0  0  0  0  0  0  0  0  0
   10.0140   47.2026  132.4433 C   0  0  0  0  0  0  0  0  0  0  0  0
   10.9291   47.3386  133.4435 C   0  0  0  0  0  0  0  0  0  0  0  0
   11.3723   48.5425  133.9335 C   0  0  0  0  0  0  0  0  0  0  0  0
   12.2988   48.6403  134.9772 C   0  0  0  0  0  0  0  0  0  0  0  0
   12.7253   49.8376  135.4468 F   0  0  0  0  0  0  0  0  0  0  0  0
   12.7944   47.4995  135.5472 C   0  0  0  0  0  0  0  0  0  0  0  0
   12.3791   46.2780  135.0927 C   0  0  0  0  0  0  0  0  0  0  0  0
   11.4691   46.2063  134.0680 C   0  0  0  0  0  0  0  0  0  0  0  0
   11.0384   45.0110  133.6319 N   0  0  0  0  0  0  0  0  0  0  0  0
    9.4401   48.3705  131.8039 C   0  0  0  0  0  0  0  0  0  0  0  0
    8.7480   48.4307  130.6687 C   0  0  0  0  0  0  0  0  0  0  0  0
    8.3919   49.8201  130.4431 C   0  0  0  0  0  0  0  0  0  0  0  0
    7.7260   50.2774  129.4617 O   0  0  0  0  0  0  0  0  0  0  0  0
    8.9063   50.6053  131.5036 N   0  0  0  0  0  0  0  0  0  0  0  0
    9.5725   49.7084  132.3752 C   0  0  0  0  0  0  0  0  0  0  0  0
   10.1516   50.0753  133.4340 O   0  0  0  0  0  0  0  0  0  0  0  0
    8.8040   51.6597  131.6104 H   0  0  0  0  0  0  0  0  0  0  0  0
    8.3407   47.2875  129.8288 C   0  0  0  0  0  0  0  0  0  0  0  0
    7.0233   46.9480  129.5139 C   0  0  0  0  0  0  0  0  0  0  0  0
    7.0317   45.8447  128.7463 N   0  0  0  0  0  0  0  0  0  0  0  0
    8.3024   45.4314  128.5353 C   0  0  0  0  0  0  0  0  0  0  0  0
    8.8244   44.3972  127.8560 N   0  0  0  0  0  0  0  0  0  0  0  0
   10.1407   44.1540  127.7770 C   0  0  0  0  0  0  0  0  0  0  0  0
   10.9755   45.0255  128.4363 C   0  0  0  0  0  0  0  0  0  0  0  0
   10.4706   46.0995  129.1440 C   0  0  0  0  0  0  0  0  0  0  0  0
    9.1167   46.3383  129.2158 C   0  0  0  0  0  0  0  0  0  0  0  0
    6.1989   45.3281  128.3364 H   0  0  0  0  0  0  0  0  0  0  0  0
    8.6669   40.4200  129.9301 C   0  0  0  0  0  0  0  0  0  0  0  0
    8.9779   41.7475  130.3211 N   0  0  0  0  0  0  0  0  0  0  0  0
   10.3329   42.0952  130.4336 C   0  0  0  0  0  0  0  0  0  0  0  0
   10.7783   42.6424  131.7567 C   0  0  0  0  0  0  0  0  0  0  0  0
    9.7593   43.5431  132.2805 N   0  0  0  0  0  0  0  0  0  0  0  0
    8.4241   43.0165  132.3762 C   0  0  0  0  0  0  0  0  0  0  0  0
    8.0109   42.4420  131.0676 C   0  0  0  0  0  0  0  0  0  0  0  0
 30 31  1  0  0  0
 31 32  1  0  0  0
 32 33  1  0  0  0
 33 34  1  0  0  0
 34 35  1  0  0  0
 35 36  1  0  0  0
 34  1  1  0  0  0
  1  2  2  0  0  0
  2  3  1  0  0  0
  3 12  1  0  0  0
 12 13  2  0  0  0
 13 14  1  0  0  0
 14 15  2  0  0  0
 14 16  1  0  0  0
 16 17  1  0  0  0
 17 18  2  0  0  0
 13 20  1  0  0  0
 20 21  2  0  0  0
 21 22  1  0  0  0
 22 23  1  0  0  0
 23 24  2  0  0  0
 24 25  1  0  0  0
 25 26  2  0  0  0
 26 27  1  0  0  0
 27 28  2  0  0  0
  3  4  2  0  0  0
  4  5  1  0  0  0
  5  6  2  0  0  0
  6  7  1  0  0  0
  6  8  1  0  0  0
  8  9  2  0  0  0
  9 10  1  0  0  0
 10 11  2  0  0  0
 36 31  1  0  0  0
 11  1  1  0  0  0
 17 12  1  0  0  0
 28 20  1  0  0  0
 10  4  1  0  0  0
 28 23  1  0  0  0
 16 19  1  0  0  0
 22 29  1  0  0  0
M  END
> <minimizedAffinity>
10.54676

> <CNNscore>
0.4525979459

> <CNNaffinity>
7.8442678452

> <CNN_VS>
3.5502994061

> <CNNaffinity_variance>
0.4425798059

$$$$
[H]c1nc2c(c([H])c1[H])c(C1=C(c3nc(N4C([H])([H])C([H])([H])N(C([H])([H])[H])C([H])([H])C4([H])[H])nc4c([H])c([H])c(F)c([H])c34)C(=O)N([H])C1=O)c([H])n2[H]


 36 41  0  0  0  0  0  0  0  0999 V2000
    9.2699   46.4004  130.4141 C   0  0  0  0  0  0  0  0  0  0  0  0
    9.3278   46.0644  131.7081 N   0  0  0  0  0  0  0  0  0  0  0  0
    9.3889   47.0062  132.6931 C   0  0  0  0  0  0  0  0  0  0  0  0
    9.3932   48.3221  132.3402 C   0  0  0  0  0  0  0  0  0  0  0  0
    9.4800   49.3652  133.2293 C   0  0  0  0  0  0  0  0  0  0  0  0
    9.5024   50.7045  132.8253 C   0  0  0  0  0  0  0  0  0  0  0  0
    9.5874   51.7207  133.7175 F   0  0  0  0  0  0  0  0  0  0  0  0
    9.4372   51.0074  131.4926 C   0  0  0  0  0  0  0  0  0  0  0  0
    9.3523   50.0000  130.5710 C   0  0  0  0  0  0  0  0  0  0  0  0
    9.3324   48.6936  130.9904 C   0  0  0  0  0  0  0  0  0  0  0  0
    9.2730   47.6980  130.0906 N   0  0  0  0  0  0  0  0  0  0  0  0
    9.4673   46.6153  134.0871 C   0  0  0  0  0  0  0  0  0  0  0  0
   10.1811   45.6302  134.6268 C   0  0  0  0  0  0  0  0  0  0  0  0
    9.9253   45.6328  136.0561 C   0  0  0  0  0  0  0  0  0  0  0  0
   10.4284   44.8401  136.9129 O   0  0  0  0  0  0  0  0  0  0  0  0
    9.0142   46.6739  136.3588 N   0  0  0  0  0  0  0  0  0  0  0  0
    8.7119   47.3078  135.1281 C   0  0  0  0  0  0  0  0  0  0  0  0
    7.9233   48.2874  135.0305 O   0  0  0  0  0  0  0  0  0  0  0  0
    8.6403   46.9191  137.3252 H   0  0  0  0  0  0  0  0  0  0  0  0
   11.1272   44.7447  133.9205 C   0  0  0  0  0  0  0  0  0  0  0  0
   12.5056   44.9486  133.8273 C   0  0  0  0  0  0  0  0  0  0  0  0
   13.0425   43.9551  133.0986 N   0  0  0  0  0  0  0  0  0  0  0  0
   12.0784   43.0943  132.6993 C   0  0  0  0  0  0  0  0  0  0  0  0
   12.1055   41.9726  131.9614 N   0  0  0  0  0  0  0  0  0  0  0  0
   11.0113   41.2560  131.6656 C   0  0  0  0  0  0  0  0  0  0  0  0
    9.8130   41.7183  132.1566 C   0  0  0  0  0  0  0  0  0  0  0  0
    9.7505   42.8689  132.9192 C   0  0  0  0  0  0  0  0  0  0  0  0
   10.8822   43.5944  133.2165 C   0  0  0  0  0  0  0  0  0  0  0  0
   14.0631   43.8124  132.8408 H   0  0  0  0  0  0  0  0  0  0  0  0
    9.8873   42.0044  127.3246 C   0  0  0  0  0  0  0  0  0  0  0  0
   10.0028   43.0026  128.3257 N   0  0  0  0  0  0  0  0  0  0  0  0
    9.0302   43.0298  129.3369 C   0  0  0  0  0  0  0  0  0  0  0  0
    8.2857   44.3186  129.5184 C   0  0  0  0  0  0  0  0  0  0  0  0
    9.2073   45.4388  129.3774 N   0  0  0  0  0  0  0  0  0  0  0  0
    9.9941   45.4759  128.1737 C   0  0  0  0  0  0  0  0  0  0  0  0
   10.6953   44.1773  127.9864 C   0  0  0  0  0  0  0  0  0  0  0  0
 30 31  1  0  0  0
 31 32  1  0  0  0
 32 33  1  0  0  0
 33 34  1  0  0  0
 34 35  1  0  0  0
 35 36  1  0  0  0
 34  1  1  0  0  0
  1  2  2  0  0  0
  2  3  1  0  0  0
  3 12  1  0  0  0
 12 13  2  0  0  0
 13 14  1  0  0  0
 14 15  2  0  0  0
 14 16  1  0  0  0
 16 17  1  0  0  0
 17 18  2  0  0  0
 13 20  1  0  0  0
 20 21  2  0  0  0
 21 22  1  0  0  0
 22 23  1  0  0  0
 23 24  2  0  0  0
 24 25  1  0  0  0
 25 26  2  0  0  0
 26 27  1  0  0  0
 27 28  2  0  0  0
  3  4  2  0  0  0
  4  5  1  0  0  0
  5  6  2  0  0  0
  6  7  1  0  0  0
  6  8  1  0  0  0
  8  9  2  0  0  0
  9 10  1  0  0  0
 10 11  2  0  0  0
 36 31  1  0  0  0
 11  1  1  0  0  0
 17 12  1  0  0  0
 28 20  1  0  0  0
 10  4  1  0  0  0
 28 23  1  0  0  0
 16 19  1  0  0  0
 22 29  1  0  0  0
M  END
> <minimizedAffinity>
5.61555

> <CNNscore>
0.3988682032

> <CNNaffinity>
7.9914894104

> <CNN_VS>
3.1875510216

> <CNNaffinity_variance>
0.6128494143

$$$$
[H]c1nc2c(c([H])c1[H])c(C1=C(c3nc(N4C([H])([H])C([H])([H])N(C([H])([H])[H])C([H])([H])C4([H])[H])nc4c([H])c([H])c(F)c([H])c34)C(=O)N([H])C1=O)c([H])n2[H]


 36 41  0  0  0  0  0  0  0  0999 V2000
   11.4737   45.9075  132.5741 C   0  0  0  0  0  0  0  0  0  0  0  0
   10.8620   46.8449  131.8407 N   0  0  0  0  0  0  0  0  0  0  0  0
    9.8762   47.6328  132.3586 C   0  0  0  0  0  0  0  0  0  0  0  0
    9.5092   47.4514  133.6582 C   0  0  0  0  0  0  0  0  0  0  0  0
    8.5147   48.1562  134.2908 C   0  0  0  0  0  0  0  0  0  0  0  0
    8.1530   47.9257  135.6225 C   0  0  0  0  0  0  0  0  0  0  0  0
    7.1695   48.6321  136.2304 F   0  0  0  0  0  0  0  0  0  0  0  0
    8.8052   46.9607  136.3404 C   0  0  0  0  0  0  0  0  0  0  0  0
    9.8011   46.2322  135.7498 C   0  0  0  0  0  0  0  0  0  0  0  0
   10.1387   46.4753  134.4422 C   0  0  0  0  0  0  0  0  0  0  0  0
   11.0992   45.7482  133.8480 N   0  0  0  0  0  0  0  0  0  0  0  0
    9.2180   48.6305  131.5379 C   0  0  0  0  0  0  0  0  0  0  0  0
    8.5013   48.4440  130.4321 C   0  0  0  0  0  0  0  0  0  0  0  0
    8.0548   49.7467  129.9718 C   0  0  0  0  0  0  0  0  0  0  0  0
    7.3424   49.9794  128.9451 O   0  0  0  0  0  0  0  0  0  0  0  0
    8.5399   50.7393  130.8578 N   0  0  0  0  0  0  0  0  0  0  0  0
    9.2778   50.0550  131.8554 C   0  0  0  0  0  0  0  0  0  0  0  0
    9.8536   50.6404  132.8130 O   0  0  0  0  0  0  0  0  0  0  0  0
    8.3740   51.7879  130.7768 H   0  0  0  0  0  0  0  0  0  0  0  0
    8.1497   47.1461  129.8239 C   0  0  0  0  0  0  0  0  0  0  0  0
    6.8635   46.6054  129.7659 C   0  0  0  0  0  0  0  0  0  0  0  0
    6.9236   45.4080  129.1583 N   0  0  0  0  0  0  0  0  0  0  0  0
    8.1992   45.1249  128.8079 C   0  0  0  0  0  0  0  0  0  0  0  0
    8.7651   44.0710  128.1976 N   0  0  0  0  0  0  0  0  0  0  0  0
   10.0793   43.9802  127.9469 C   0  0  0  0  0  0  0  0  0  0  0  0
   10.8638   45.0362  128.3474 C   0  0  0  0  0  0  0  0  0  0  0  0
   10.3129   46.1356  128.9776 C   0  0  0  0  0  0  0  0  0  0  0  0
    8.9615   46.2163  129.2276 C   0  0  0  0  0  0  0  0  0  0  0  0
    6.1247   44.7382  128.9549 H   0  0  0  0  0  0  0  0  0  0  0  0
   14.8746   43.2064  129.3508 C   0  0  0  0  0  0  0  0  0  0  0  0
   13.8059   43.9768  129.8765 N   0  0  0  0  0  0  0  0  0  0  0  0
   14.0746   45.3056  130.2392 C   0  0  0  0  0  0  0  0  0  0  0  0
   13.7560   45.6938  131.6519 C   0  0  0  0  0  0  0  0  0  0  0  0
   12.4975   45.0793  132.0551 N   0  0  0  0  0  0  0  0  0  0  0  0
   12.3960   43.6541  131.8885 C   0  0  0  0  0  0  0  0  0  0  0  0
   12.7530   43.2802  130.4936 C   0  0  0  0  0  0  0  0  0  0  0  0
 30 31  1  0  0  0
 31 32  1  0  0  0
 32 33  1  0  0  0
 33 34  1  0  0  0
 34 35  1  0  0  0
 35 36  1  0  0  0
 34  1  1  0  0  0
  1  2  2  0  0  0
  2  3  1  0  0  0
  3 12  1  0  0  0
 12 13  2  0  0  0
 13 14  1  0  0  0
 14 15  2  0  0  0
 14 16  1  0  0  0
 16 17  1  0  0  0
 17 18  2  0  0  0
 13 20  1  0  0  0
 20 21  2  0  0  0
 21 22  1  0  0  0
 22 23  1  0  0  0
 23 24  2  0  0  0
 24 25  1  0  0  0
 25 26  2  0  0  0
 26 27  1  0  0  0
 27 28  2  0  0  0
  3  4  2  0  0  0
  4  5  1  0  0  0
  5  6  2  0  0  0
  6  7  1  0  0  0
  6  8  1  0  0  0
  8  9  2  0  0  0
  9 10  1  0  0  0
 10 11  2  0  0  0
 36 31  1  0  0  0
 11  1  1  0  0  0
 17 12  1  0  0  0
 28 20  1  0  0  0
 10  4  1  0  0  0
 28 23  1  0  0  0
 16 19  1  0  0  0
 22 29  1  0  0  0
M  END
> <minimizedAffinity>
7.67929

> <CNNscore>
0.3976516426

> <CNNaffinity>
7.8648633957

> <CNN_VS>
3.1274757385

> <CNNaffinity_variance>
0.9607327580

$$$$
[H]c1nc2c(c([H])c1[H])c(C1=C(c3nc(N4C([H])([H])C([H])([H])N(C([H])([H])[H])C([H])([H])C4([H])[H])nc4c([H])c([H])c(F)c([H])c34)C(=O)N([H])C1=O)c([H])n2[H]


 36 41  0  0  0  0  0  0  0  0999 V2000
    9.1198   43.6313  131.6432 C   0  0  0  0  0  0  0  0  0  0  0  0
    9.2950   44.8101  132.2518 N   0  0  0  0  0  0  0  0  0  0  0  0
    9.8127   45.8880  131.5952 C   0  0  0  0  0  0  0  0  0  0  0  0
   10.1604   45.7504  130.2850 C   0  0  0  0  0  0  0  0  0  0  0  0
   10.7168   46.7457  129.5197 C   0  0  0  0  0  0  0  0  0  0  0  0
   11.0797   46.5586  128.1816 C   0  0  0  0  0  0  0  0  0  0  0  0
   11.6266   47.5531  127.4416 F   0  0  0  0  0  0  0  0  0  0  0  0
   10.8808   45.3391  127.5938 C   0  0  0  0  0  0  0  0  0  0  0  0
   10.3316   44.3176  128.3192 C   0  0  0  0  0  0  0  0  0  0  0  0
    9.9837   44.5240  129.6304 C   0  0  0  0  0  0  0  0  0  0  0  0
    9.4658   43.5194  130.3563 N   0  0  0  0  0  0  0  0  0  0  0  0
   10.0076   47.1498  132.2822 C   0  0  0  0  0  0  0  0  0  0  0  0
    9.5552   48.3530  131.9375 C   0  0  0  0  0  0  0  0  0  0  0  0
   10.0157   49.2998  132.9373 C   0  0  0  0  0  0  0  0  0  0  0  0
    9.7838   50.5495  132.9549 O   0  0  0  0  0  0  0  0  0  0  0  0
   10.7757   48.6075  133.9115 N   0  0  0  0  0  0  0  0  0  0  0  0
   10.7829   47.2467  133.5164 C   0  0  0  0  0  0  0  0  0  0  0  0
   11.3745   46.3415  134.1658 O   0  0  0  0  0  0  0  0  0  0  0  0
   11.2424   49.0386  134.7659 H   0  0  0  0  0  0  0  0  0  0  0  0
    8.6755   48.6642  130.7940 C   0  0  0  0  0  0  0  0  0  0  0  0
    8.8074   49.7719  129.9539 C   0  0  0  0  0  0  0  0  0  0  0  0
    7.8248   49.7403  129.0374 N   0  0  0  0  0  0  0  0  0  0  0  0
    7.0395   48.6558  129.2309 C   0  0  0  0  0  0  0  0  0  0  0  0
    5.9485   48.1949  128.5979 N   0  0  0  0  0  0  0  0  0  0  0  0
    5.2984   47.0802  128.9624 C   0  0  0  0  0  0  0  0  0  0  0  0
    5.7975   46.3942  130.0446 C   0  0  0  0  0  0  0  0  0  0  0  0
    6.9183   46.8413  130.7178 C   0  0  0  0  0  0  0  0  0  0  0  0
    7.5770   47.9870  130.3319 C   0  0  0  0  0  0  0  0  0  0  0  0
    7.6401   50.4334  128.2540 H   0  0  0  0  0  0  0  0  0  0  0  0
    6.0752   40.2423  134.5581 C   0  0  0  0  0  0  0  0  0  0  0  0
    6.6548   41.3856  133.9507 N   0  0  0  0  0  0  0  0  0  0  0  0
    6.3497   41.6356  132.6039 C   0  0  0  0  0  0  0  0  0  0  0  0
    7.5111   41.7560  131.6632 C   0  0  0  0  0  0  0  0  0  0  0  0
    8.5855   42.5011  132.3070 N   0  0  0  0  0  0  0  0  0  0  0  0
    9.0232   42.0186  133.5895 C   0  0  0  0  0  0  0  0  0  0  0  0
    7.8558   41.8667  134.4991 C   0  0  0  0  0  0  0  0  0  0  0  0
 30 31  1  0  0  0
 31 32  1  0  0  0
 32 33  1  0  0  0
 33 34  1  0  0  0
 34 35  1  0  0  0
 35 36  1  0  0  0
 34  1  1  0  0  0
  1  2  2  0  0  0
  2  3  1  0  0  0
  3 12  1  0  0  0
 12 13  2  0  0  0
 13 14  1  0  0  0
 14 15  2  0  0  0
 14 16  1  0  0  0
 16 17  1  0  0  0
 17 18  2  0  0  0
 13 20  1  0  0  0
 20 21  2  0  0  0
 21 22  1  0  0  0
 22 23  1  0  0  0
 23 24  2  0  0  0
 24 25  1  0  0  0
 25 26  2  0  0  0
 26 27  1  0  0  0
 27 28  2  0  0  0
  3  4  2  0  0  0
  4  5  1  0  0  0
  5  6  2  0  0  0
  6  7  1  0  0  0
  6  8  1  0  0  0
  8  9  2  0  0  0
  9 10  1  0  0  0
 10 11  2  0  0  0
 36 31  1  0  0  0
 11  1  1  0  0  0
 17 12  1  0  0  0
 28 20  1  0  0  0
 10  4  1  0  0  0
 28 23  1  0  0  0
 16 19  1  0  0  0
 22 29  1  0  0  0
M  END
> <minimizedAffinity>
9.22908

> <CNNscore>
0.3934960663

> <CNNaffinity>
7.7481737137

> <CNN_VS>
3.0488758087

> <CNNaffinity_variance>
0.5261871219

$$$$
[H]c1nc2c(c([H])c1[H])c(C1=C(c3nc(N4C([H])([H])C([H])([H])N(C([H])([H])[H])C([H])([H])C4([H])[H])nc4c([H])c([H])c(F)c([H])c34)C(=O)N([H])C1=O)c([H])n2[H]


 36 41  0  0  0  0  0  0  0  0999 V2000
    9.0892   47.4761  132.1014 C   0  0  0  0  0  0  0  0  0  0  0  0
   10.1552   46.9402  131.4952 N   0  0  0  0  0  0  0  0  0  0  0  0
   10.9430   46.0137  132.1133 C   0  0  0  0  0  0  0  0  0  0  0  0
   10.6299   45.6317  133.3831 C   0  0  0  0  0  0  0  0  0  0  0  0
   11.3551   44.7323  134.1255 C   0  0  0  0  0  0  0  0  0  0  0  0
   11.0121   44.3812  135.4356 C   0  0  0  0  0  0  0  0  0  0  0  0
   11.7393   43.4906  136.1525 F   0  0  0  0  0  0  0  0  0  0  0  0
    9.9122   44.9483  136.0191 C   0  0  0  0  0  0  0  0  0  0  0  0
    9.1615   45.8516  135.3176 C   0  0  0  0  0  0  0  0  0  0  0  0
    9.5172   46.1812  134.0339 C   0  0  0  0  0  0  0  0  0  0  0  0
    8.7991   47.0849  133.3468 N   0  0  0  0  0  0  0  0  0  0  0  0
   12.1020   45.4604  131.4404 C   0  0  0  0  0  0  0  0  0  0  0  0
   12.1380   44.5038  130.5157 C   0  0  0  0  0  0  0  0  0  0  0  0
   13.5281   44.2949  130.1521 C   0  0  0  0  0  0  0  0  0  0  0  0
   13.9662   43.4631  129.2966 O   0  0  0  0  0  0  0  0  0  0  0  0
   14.3391   45.1767  130.9073 N   0  0  0  0  0  0  0  0  0  0  0  0
   13.4573   45.9228  131.7281 C   0  0  0  0  0  0  0  0  0  0  0  0
   13.8485   46.8091  132.5360 O   0  0  0  0  0  0  0  0  0  0  0  0
   15.4000   45.2521  130.8566 H   0  0  0  0  0  0  0  0  0  0  0  0
   10.9751   43.8307  129.9051 C   0  0  0  0  0  0  0  0  0  0  0  0
   10.7550   43.6884  128.5334 C   0  0  0  0  0  0  0  0  0  0  0  0
    9.5926   43.0403  128.3459 N   0  0  0  0  0  0  0  0  0  0  0  0
    9.0250   42.7436  129.5375 C   0  0  0  0  0  0  0  0  0  0  0  0
    7.8826   42.1234  129.8745 N   0  0  0  0  0  0  0  0  0  0  0  0
    7.4903   41.9354  131.1429 C   0  0  0  0  0  0  0  0  0  0  0  0
    8.3210   42.4137  132.1289 C   0  0  0  0  0  0  0  0  0  0  0  0
    9.5035   43.0563  131.8159 C   0  0  0  0  0  0  0  0  0  0  0  0
    9.8950   43.2414  130.5091 C   0  0  0  0  0  0  0  0  0  0  0  0
    9.1356   42.7724  127.4252 H   0  0  0  0  0  0  0  0  0  0  0  0
    6.9085   51.0740  128.7027 C   0  0  0  0  0  0  0  0  0  0  0  0
    7.7704   50.1633  129.3657 N   0  0  0  0  0  0  0  0  0  0  0  0
    7.5201   48.7917  129.2055 C   0  0  0  0  0  0  0  0  0  0  0  0
    7.3173   47.9950  130.4594 C   0  0  0  0  0  0  0  0  0  0  0  0
    8.2603   48.4392  131.4780 N   0  0  0  0  0  0  0  0  0  0  0  0
    8.2727   49.8473  131.7716 C   0  0  0  0  0  0  0  0  0  0  0  0
    8.4349   50.6258  130.5143 C   0  0  0  0  0  0  0  0  0  0  0  0
 30 31  1  0  0  0
 31 32  1  0  0  0
 32 33  1  0  0  0
 33 34  1  0  0  0
 34 35  1  0  0  0
 35 36  1  0  0  0
 34  1  1  0  0  0
  1  2  2  0  0  0
  2  3  1  0  0  0
  3 12  1  0  0  0
 12 13  2  0  0  0
 13 14  1  0  0  0
 14 15  2  0  0  0
 14 16  1  0  0  0
 16 17  1  0  0  0
 17 18  2  0  0  0
 13 20  1  0  0  0
 20 21  2  0  0  0
 21 22  1  0  0  0
 22 23  1  0  0  0
 23 24  2  0  0  0
 24 25  1  0  0  0
 25 26  2  0  0  0
 26 27  1  0  0  0
 27 28  2  0  0  0
  3  4  2  0  0  0
  4  5  1  0  0  0
  5  6  2  0  0  0
  6  7  1  0  0  0
  6  8  1  0  0  0
  8  9  2  0  0  0
  9 10  1  0  0  0
 10 11  2  0  0  0
 36 31  1  0  0  0
 11  1  1  0  0  0
 17 12  1  0  0  0
 28 20  1  0  0  0
 10  4  1  0  0  0
 28 23  1  0  0  0
 16 19  1  0  0  0
 22 29  1  0  0  0
M  END
> <minimizedAffinity>
5.72878

> <CNNscore>
0.3780578971

> <CNNaffinity>
7.8014464378

> <CNN_VS>
2.9493985176

> <CNNaffinity_variance>
0.4607069492

$$$$
[H]c1nc2c(c([H])c1[H])c(C1=C(c3nc(N4C([H])([H])C([H])([H])N(C([H])([H])[H])C([H])([H])C4([H])[H])nc4c([H])c([H])c(F)c([H])c34)C(=O)N([H])C1=O)c([H])n2[H]


 36 41  0  0  0  0  0  0  0  0999 V2000
    9.0547   47.9811  131.1664 C   0  0  0  0  0  0  0  0  0  0  0  0
    8.8409   46.7204  130.7718 N   0  0  0  0  0  0  0  0  0  0  0  0
    9.1069   45.6579  131.5850 C   0  0  0  0  0  0  0  0  0  0  0  0
    9.6061   45.8964  132.8301 C   0  0  0  0  0  0  0  0  0  0  0  0
    9.9424   44.9181  133.7334 C   0  0  0  0  0  0  0  0  0  0  0  0
   10.4724   45.2036  134.9963 C   0  0  0  0  0  0  0  0  0  0  0  0
   10.7973   44.2247  135.8750 F   0  0  0  0  0  0  0  0  0  0  0  0
   10.6726   46.5061  135.3642 C   0  0  0  0  0  0  0  0  0  0  0  0
   10.3543   47.5134  134.4951 C   0  0  0  0  0  0  0  0  0  0  0  0
    9.8360   47.2097  133.2614 C   0  0  0  0  0  0  0  0  0  0  0  0
    9.5430   48.1920  132.3933 N   0  0  0  0  0  0  0  0  0  0  0  0
    8.8815   44.3007  131.1274 C   0  0  0  0  0  0  0  0  0  0  0  0
    9.7841   43.3524  130.8879 C   0  0  0  0  0  0  0  0  0  0  0  0
    9.0711   42.1676  130.4448 C   0  0  0  0  0  0  0  0  0  0  0  0
    9.5895   41.0524  130.1236 O   0  0  0  0  0  0  0  0  0  0  0  0
    7.6826   42.4460  130.4260 N   0  0  0  0  0  0  0  0  0  0  0  0
    7.5408   43.7893  130.8543 C   0  0  0  0  0  0  0  0  0  0  0  0
    6.4247   44.3684  130.9558 O   0  0  0  0  0  0  0  0  0  0  0  0
    6.9107   41.7690  130.1437 H   0  0  0  0  0  0  0  0  0  0  0  0
   11.2398   43.4518  131.1091 C   0  0  0  0  0  0  0  0  0  0  0  0
   11.9008   43.1070  132.2899 C   0  0  0  0  0  0  0  0  0  0  0  0
   13.2151   43.3428  132.1358 N   0  0  0  0  0  0  0  0  0  0  0  0
   13.4604   43.8327  130.8989 C   0  0  0  0  0  0  0  0  0  0  0  0
   14.5858   44.2229  130.2789 N   0  0  0  0  0  0  0  0  0  0  0  0
   14.6122   44.6987  129.0255 C   0  0  0  0  0  0  0  0  0  0  0  0
   13.4087   44.7804  128.3653 C   0  0  0  0  0  0  0  0  0  0  0  0
   12.2325   44.3869  128.9744 C   0  0  0  0  0  0  0  0  0  0  0  0
   12.2201   43.8989  130.2617 C   0  0  0  0  0  0  0  0  0  0  0  0
   13.9934   43.1882  132.8418 H   0  0  0  0  0  0  0  0  0  0  0  0
    6.7144   52.0641  128.5011 C   0  0  0  0  0  0  0  0  0  0  0  0
    6.9762   50.9030  129.2726 N   0  0  0  0  0  0  0  0  0  0  0  0
    7.4320   51.0813  130.5879 C   0  0  0  0  0  0  0  0  0  0  0  0
    8.7298   50.4204  130.9444 C   0  0  0  0  0  0  0  0  0  0  0  0
    8.7864   49.0966  130.3375 N   0  0  0  0  0  0  0  0  0  0  0  0
    8.5596   49.0301  128.9185 C   0  0  0  0  0  0  0  0  0  0  0  0
    7.2891   49.7238  128.5753 C   0  0  0  0  0  0  0  0  0  0  0  0
 30 31  1  0  0  0
 31 32  1  0  0  0
 32 33  1  0  0  0
 33 34  1  0  0  0
 34 35  1  0  0  0
 35 36  1  0  0  0
 34  1  1  0  0  0
  1  2  2  0  0  0
  2  3  1  0  0  0
  3 12  1  0  0  0
 12 13  2  0  0  0
 13 14  1  0  0  0
 14 15  2  0  0  0
 14 16  1  0  0  0
 16 17  1  0  0  0
 17 18  2  0  0  0
 13 20  1  0  0  0
 20 21  2  0  0  0
 21 22  1  0  0  0
 22 23  1  0  0  0
 23 24  2  0  0  0
 24 25  1  0  0  0
 25 26  2  0  0  0
 26 27  1  0  0  0
 27 28  2  0  0  0
  3  4  2  0  0  0
  4  5  1  0  0  0
  5  6  2  0  0  0
  6  7  1  0  0  0
  6  8  1  0  0  0
  8  9  2  0  0  0
  9 10  1  0  0  0
 10 11  2  0  0  0
 36 31  1  0  0  0
 11  1  1  0  0  0
 17 12  1  0  0  0
 28 20  1  0  0  0
 10  4  1  0  0  0
 28 23  1  0  0  0
 16 19  1  0  0  0
 22 29  1  0  0  0
M  END
> <minimizedAffinity>
9.42440

> <CNNscore>
0.3317830861

> <CNNaffinity>
7.6291074753

> <CNN_VS>
2.5312087536

> <CNNaffinity_variance>
0.5429493785

$$$$
[H]c1nc2c(c([H])c1[H])c(C1=C(c3nc(N4C([H])([H])C([H])([H])N(C([H])([H])[H])C([H])([H])C4([H])[H])nc4c([H])c([H])c(F)c([H])c34)C(=O)N([H])C1=O)c([H])n2[H]


 36 41  0  0  0  0  0  0  0  0999 V2000
   10.8360   45.3881  133.5575 C   0  0  0  0  0  0  0  0  0  0  0  0
   11.0863   45.5775  132.2566 N   0  0  0  0  0  0  0  0  0  0  0  0
   10.4413   44.8638  131.2894 C   0  0  0  0  0  0  0  0  0  0  0  0
    9.5210   43.9331  131.6676 C   0  0  0  0  0  0  0  0  0  0  0  0
    8.8247   43.1301  130.7979 C   0  0  0  0  0  0  0  0  0  0  0  0
    7.9018   42.1704  131.2274 C   0  0  0  0  0  0  0  0  0  0  0  0
    7.2231   41.3876  130.3541 F   0  0  0  0  0  0  0  0  0  0  0  0
    7.6707   42.0097  132.5664 C   0  0  0  0  0  0  0  0  0  0  0  0
    8.3438   42.7863  133.4693 C   0  0  0  0  0  0  0  0  0  0  0  0
    9.2449   43.7210  133.0250 C   0  0  0  0  0  0  0  0  0  0  0  0
    9.9273   44.4710  133.9060 N   0  0  0  0  0  0  0  0  0  0  0  0
   10.7426   45.0770  129.8872 C   0  0  0  0  0  0  0  0  0  0  0  0
   10.0298   45.7471  128.9850 C   0  0  0  0  0  0  0  0  0  0  0  0
   10.7406   45.6759  127.7209 C   0  0  0  0  0  0  0  0  0  0  0  0
   10.3759   46.1983  126.6210 O   0  0  0  0  0  0  0  0  0  0  0  0
   11.9269   44.9236  127.9015 N   0  0  0  0  0  0  0  0  0  0  0  0
   11.9476   44.5355  129.2641 C   0  0  0  0  0  0  0  0  0  0  0  0
   12.8742   43.8469  129.7727 O   0  0  0  0  0  0  0  0  0  0  0  0
   12.6499   44.7026  127.1517 H   0  0  0  0  0  0  0  0  0  0  0  0
    8.7846   46.4991  129.2342 C   0  0  0  0  0  0  0  0  0  0  0  0
    7.4953   46.0346  128.9656 C   0  0  0  0  0  0  0  0  0  0  0  0
    6.6115   46.9896  129.3024 N   0  0  0  0  0  0  0  0  0  0  0  0
    7.2578   48.0756  129.7852 C   0  0  0  0  0  0  0  0  0  0  0  0
    6.8301   49.2655  130.2373 N   0  0  0  0  0  0  0  0  0  0  0  0
    7.6537   50.2305  130.6717 C   0  0  0  0  0  0  0  0  0  0  0  0
    9.0014   49.9593  130.6404 C   0  0  0  0  0  0  0  0  0  0  0  0
    9.4744   48.7449  130.1813 C   0  0  0  0  0  0  0  0  0  0  0  0
    8.6174   47.7623  129.7394 C   0  0  0  0  0  0  0  0  0  0  0  0
    5.5527   46.9561  129.2248 H   0  0  0  0  0  0  0  0  0  0  0  0
   13.5226   49.1200  136.4047 C   0  0  0  0  0  0  0  0  0  0  0  0
   12.9247   48.3523  135.3727 N   0  0  0  0  0  0  0  0  0  0  0  0
   11.5343   48.4484  135.2084 C   0  0  0  0  0  0  0  0  0  0  0  0
   10.7601   47.1659  135.2717 C   0  0  0  0  0  0  0  0  0  0  0  0
   11.4951   46.1172  134.5760 N   0  0  0  0  0  0  0  0  0  0  0  0
   12.8569   45.9052  134.9883 C   0  0  0  0  0  0  0  0  0  0  0  0
   13.6017   47.1927  134.9584 C   0  0  0  0  0  0  0  0  0  0  0  0
 30 31  1  0  0  0
 31 32  1  0  0  0
 32 33  1  0  0  0
 33 34  1  0  0  0
 34 35  1  0  0  0
 35 36  1  0  0  0
 34  1  1  0  0  0
  1  2  2  0  0  0
  2  3  1  0  0  0
  3 12  1  0  0  0
 12 13  2  0  0  0
 13 14  1  0  0  0
 14 15  2  0  0  0
 14 16  1  0  0  0
 16 17  1  0  0  0
 17 18  2  0  0  0
 13 20  1  0  0  0
 20 21  2  0  0  0
 21 22  1  0  0  0
 22 23  1  0  0  0
 23 24  2  0  0  0
 24 25  1  0  0  0
 25 26  2  0  0  0
 26 27  1  0  0  0
 27 28  2  0  0  0
  3  4  2  0  0  0
  4  5  1  0  0  0
  5  6  2  0  0  0
  6  7  1  0  0  0
  6  8  1  0  0  0
  8  9  2  0  0  0
  9 10  1  0  0  0
 10 11  2  0  0  0
 36 31  1  0  0  0
 11  1  1  0  0  0
 17 12  1  0  0  0
 28 20  1  0  0  0
 10  4  1  0  0  0
 28 23  1  0  0  0
 16 19  1  0  0  0
 22 29  1  0  0  0
M  END
> <minimizedAffinity>
11.18958

> <CNNscore>
0.3153343499

> <CNNaffinity>
7.7197928429

> <CNN_VS>
2.4343159199

> <CNNaffinity_variance>
0.8115901947

$$$$
[H]O[C@@]1([H])C([H])=C(C(=O)N([H])[C@]2([H])[C@]([H])(O[H])[C@]([H])(O[H])[C@]([H])(O[H])[C@@]2([H])O[H])O[C@]([H])(O[C@@]([H])(n2c([H])c([H])c(=O)n([H])c2=O)[C@@]2([H])O[C@@]([H])(C(=O)N([H])[H])[C@]([H])(O[H])[C@]2([H])OC([H])([H])[H])[C@@]1([H])O[H]


 52 55  0  0  0  0  0  0  0  0999 V2000
   11.8112   44.4646  132.4801 C   0  0  0  0  0  0  0  0  0  0  0  0
   10.4847   44.8188  132.2839 O   0  0  0  0  0  0  0  0  0  0  0  0
    9.7163   45.5818  133.1599 C   0  0  0  0  0  0  0  0  0  0  0  0
    9.9316   45.3967  134.4448 C   0  0  0  0  0  0  0  0  0  0  0  0
   10.9694   44.3960  134.8329 C   0  0  0  0  0  0  0  0  0  0  0  0
   11.3733   44.5346  136.1465 O   0  0  0  0  0  0  0  0  0  0  0  0
   12.1735   44.6446  133.9519 C   0  0  0  0  0  0  0  0  0  0  0  0
   12.5804   45.9686  134.2034 O   0  0  0  0  0  0  0  0  0  0  0  0
   11.7217   43.6635  136.4760 H   0  0  0  0  0  0  0  0  0  0  0  0
   12.4945   46.1229  135.1912 H   0  0  0  0  0  0  0  0  0  0  0  0
    8.7289   46.5327  132.7062 C   0  0  0  0  0  0  0  0  0  0  0  0
    7.4928   46.3295  132.9275 O   0  0  0  0  0  0  0  0  0  0  0  0
    9.1252   47.6983  132.0117 N   0  0  0  0  0  0  0  0  0  0  0  0
   10.1005   47.9252  131.7985 H   0  0  0  0  0  0  0  0  0  0  0  0
    8.0977   48.6348  131.5702 C   0  0  0  0  0  0  0  0  0  0  0  0
    6.9846   47.8352  130.9525 C   0  0  0  0  0  0  0  0  0  0  0  0
    7.4462   46.8158  130.1313 O   0  0  0  0  0  0  0  0  0  0  0  0
    6.2520   48.8900  130.1494 C   0  0  0  0  0  0  0  0  0  0  0  0
    5.3961   48.3463  129.2093 O   0  0  0  0  0  0  0  0  0  0  0  0
    7.4070   49.6236  129.4999 C   0  0  0  0  0  0  0  0  0  0  0  0
    7.6995   49.0660  128.2357 O   0  0  0  0  0  0  0  0  0  0  0  0
    8.5888   49.4679  130.4029 C   0  0  0  0  0  0  0  0  0  0  0  0
    9.0024   50.7405  130.7993 O   0  0  0  0  0  0  0  0  0  0  0  0
    8.2582   47.1260  129.7001 H   0  0  0  0  0  0  0  0  0  0  0  0
    5.8441   47.5694  128.7881 H   0  0  0  0  0  0  0  0  0  0  0  0
    8.4537   49.6277  127.8888 H   0  0  0  0  0  0  0  0  0  0  0  0
    9.5852   50.6240  131.5798 H   0  0  0  0  0  0  0  0  0  0  0  0
   12.1482   43.1919  132.0525 O   0  0  0  0  0  0  0  0  0  0  0  0
   11.2997   42.7057  131.0669 C   0  0  0  0  0  0  0  0  0  0  0  0
    9.9782   42.4301  131.5776 N   0  0  0  0  0  0  0  0  0  0  0  0
    9.8245   42.3402  132.9254 C   0  0  0  0  0  0  0  0  0  0  0  0
    8.6048   42.0840  133.5015 C   0  0  0  0  0  0  0  0  0  0  0  0
    7.4964   41.9111  132.7029 C   0  0  0  0  0  0  0  0  0  0  0  0
    6.3776   41.6763  133.2291 O   0  0  0  0  0  0  0  0  0  0  0  0
    7.6887   42.0075  131.3803 N   0  0  0  0  0  0  0  0  0  0  0  0
    8.8840   42.2584  130.8239 C   0  0  0  0  0  0  0  0  0  0  0  0
    9.0019   42.3394  129.5729 O   0  0  0  0  0  0  0  0  0  0  0  0
    6.8451   41.8760  130.7754 H   0  0  0  0  0  0  0  0  0  0  0  0
   12.3851   44.5566  129.7113 C   0  0  0  0  0  0  0  0  0  0  0  0
   11.7386   45.7771  129.0291 C   0  0  0  0  0  0  0  0  0  0  0  0
   12.4281   46.1480  127.8871 O   0  0  0  0  0  0  0  0  0  0  0  0
   10.3635   45.2300  128.7185 C   0  0  0  0  0  0  0  0  0  0  0  0
   10.1363   44.4490  129.8795 O   0  0  0  0  0  0  0  0  0  0  0  0
   11.2676   43.5955  129.8554 C   0  0  0  0  0  0  0  0  0  0  0  0
   12.7663   47.0693  128.0238 H   0  0  0  0  0  0  0  0  0  0  0  0
    9.3492   46.2863  128.6233 C   0  0  0  0  0  0  0  0  0  0  0  0
    8.0126   45.9650  128.3513 N   0  0  0  0  0  0  0  0  0  0  0  0
    9.6997   47.4830  128.7903 O   0  0  0  0  0  0  0  0  0  0  0  0
    7.4529   46.3751  127.5876 H   0  0  0  0  0  0  0  0  0  0  0  0
    7.5464   45.2582  128.9650 H   0  0  0  0  0  0  0  0  0  0  0  0
   14.6718   44.3423  129.3144 C   0  0  0  0  0  0  0  0  0  0  0  0
   13.3967   44.1502  128.8634 O   0  0  0  0  0  0  0  0  0  0  0  0
 51 52  1  0  0  0
 52 39  1  0  0  0
 39 40  1  0  0  0
 40 41  1  0  0  0
 40 42  1  0  0  0
 42 43  1  0  0  0
 43 44  1  0  0  0
 44 29  1  0  0  0
 29 28  1  0  0  0
 28  1  1  0  0  0
  1  2  1  0  0  0
  2  3  1  0  0  0
  3  4  2  0  0  0
  4  5  1  0  0  0
  5  6  1  0  0  0
  5  7  1  0  0  0
  7  8  1  0  0  0
  3 11  1  0  0  0
 11 12  2  0  0  0
 11 13  1  0  0  0
 13 15  1  0  0  0
 15 16  1  0  0  0
 16 17  1  0  0  0
 16 18  1  0  0  0
 18 19  1  0  0  0
 18 20  1  0  0  0
 20 21  1  0  0  0
 20 22  1  0  0  0
 22 23  1  0  0  0
 29 30  1  0  0  0
 30 31  1  0  0  0
 31 32  2  0  0  0
 32 33  1  0  0  0
 33 34  2  0  0  0
 33 35  1  0  0  0
 35 36  1  0  0  0
 36 37  2  0  0  0
 42 46  1  0  0  0
 46 47  1  0  0  0
 46 48  2  0  0  0
 44 39  1  0  0  0
  7  1  1  0  0  0
 22 15  1  0  0  0
 36 30  1  0  0  0
 41 45  1  0  0  0
  6  9  1  0  0  0
  8 10  1  0  0  0
 13 14  1  0  0  0
 17 24  1  0  0  0
 19 25  1  0  0  0
 21 26  1  0  0  0
 23 27  1  0  0  0
 35 38  1  0  0  0
 47 49  1  0  0  0
 47 50  1  0  0  0
M  END
> <minimizedAffinity>
4.26628

> <CNNscore>
0.4241243303

> <CNNaffinity>
6.5427312851

> <CNN_VS>
2.7749314308

> <CNNaffinity_variance>
1.0066158772

$$$$
[H]O[C@@]1([H])C([H])=C(C(=O)N([H])[C@]2([H])[C@]([H])(O[H])[C@]([H])(O[H])[C@]([H])(O[H])[C@@]2([H])O[H])O[C@]([H])(O[C@@]([H])(n2c([H])c([H])c(=O)n([H])c2=O)[C@@]2([H])O[C@@]([H])(C(=O)N([H])[H])[C@]([H])(O[H])[C@]2([H])OC([H])([H])[H])[C@@]1([H])O[H]


 52 55  0  0  0  0  0  0  0  0999 V2000
   12.5842   45.3221  132.1337 C   0  0  0  0  0  0  0  0  0  0  0  0
   11.2869   45.7700  131.9333 O   0  0  0  0  0  0  0  0  0  0  0  0
   10.7922   47.0102  132.3301 C   0  0  0  0  0  0  0  0  0  0  0  0
   11.2459   47.4868  133.4696 C   0  0  0  0  0  0  0  0  0  0  0  0
   12.2375   46.6584  134.2177 C   0  0  0  0  0  0  0  0  0  0  0  0
   12.9125   47.3823  135.1811 O   0  0  0  0  0  0  0  0  0  0  0  0
   13.2550   46.1712  133.2102 C   0  0  0  0  0  0  0  0  0  0  0  0
   13.8328   47.3231  132.6437 O   0  0  0  0  0  0  0  0  0  0  0  0
   13.2333   46.7642  135.8907 H   0  0  0  0  0  0  0  0  0  0  0  0
   13.9658   47.9844  133.3866 H   0  0  0  0  0  0  0  0  0  0  0  0
    9.8315   47.7531  131.5492 C   0  0  0  0  0  0  0  0  0  0  0  0
   10.2013   48.3868  130.5101 O   0  0  0  0  0  0  0  0  0  0  0  0
    8.4708   47.7842  131.9310 N   0  0  0  0  0  0  0  0  0  0  0  0
    8.1035   47.2990  132.7543 H   0  0  0  0  0  0  0  0  0  0  0  0
    7.5311   48.5456  131.1156 C   0  0  0  0  0  0  0  0  0  0  0  0
    6.6729   47.5632  130.3685 C   0  0  0  0  0  0  0  0  0  0  0  0
    7.3995   46.5016  129.8474 O   0  0  0  0  0  0  0  0  0  0  0  0
    6.1028   48.4263  129.2619 C   0  0  0  0  0  0  0  0  0  0  0  0
    5.5584   47.6822  128.2315 O   0  0  0  0  0  0  0  0  0  0  0  0
    7.3337   49.1877  128.8157 C   0  0  0  0  0  0  0  0  0  0  0  0
    7.9806   48.5081  127.7600 O   0  0  0  0  0  0  0  0  0  0  0  0
    8.2495   49.2708  129.9951 C   0  0  0  0  0  0  0  0  0  0  0  0
    8.4588   50.6193  130.2874 O   0  0  0  0  0  0  0  0  0  0  0  0
    8.2723   46.8373  129.5886 H   0  0  0  0  0  0  0  0  0  0  0  0
    6.1519   46.9090  128.0540 H   0  0  0  0  0  0  0  0  0  0  0  0
    8.7589   49.0965  127.5303 H   0  0  0  0  0  0  0  0  0  0  0  0
    8.8264   50.6635  131.1958 H   0  0  0  0  0  0  0  0  0  0  0  0
   12.7000   43.9768  132.4386 O   0  0  0  0  0  0  0  0  0  0  0  0
   11.5619   43.2467  132.1234 C   0  0  0  0  0  0  0  0  0  0  0  0
   10.3922   43.7455  132.8061 N   0  0  0  0  0  0  0  0  0  0  0  0
    9.2913   44.0241  132.0585 C   0  0  0  0  0  0  0  0  0  0  0  0
    8.1327   44.4995  132.6215 C   0  0  0  0  0  0  0  0  0  0  0  0
    8.0698   44.7046  133.9817 C   0  0  0  0  0  0  0  0  0  0  0  0
    7.0088   45.1402  134.4995 O   0  0  0  0  0  0  0  0  0  0  0  0
    9.1747   44.4180  134.6836 N   0  0  0  0  0  0  0  0  0  0  0  0
   10.3040   43.9534  134.1266 C   0  0  0  0  0  0  0  0  0  0  0  0
   11.3106   43.7002  134.8395 O   0  0  0  0  0  0  0  0  0  0  0  0
    9.1246   44.5744  135.7170 H   0  0  0  0  0  0  0  0  0  0  0  0
   12.0419   44.1394  129.7966 C   0  0  0  0  0  0  0  0  0  0  0  0
   11.0780   44.3586  128.6152 C   0  0  0  0  0  0  0  0  0  0  0  0
   11.7150   44.1851  127.3980 O   0  0  0  0  0  0  0  0  0  0  0  0
   10.0519   43.2812  128.8859 C   0  0  0  0  0  0  0  0  0  0  0  0
    9.9901   43.3437  130.3007 O   0  0  0  0  0  0  0  0  0  0  0  0
   11.3507   43.1364  130.6389 C   0  0  0  0  0  0  0  0  0  0  0  0
   11.6689   45.0447  126.9074 H   0  0  0  0  0  0  0  0  0  0  0  0
    8.7385   43.6034  128.3159 C   0  0  0  0  0  0  0  0  0  0  0  0
    8.5184   43.5000  126.9359 N   0  0  0  0  0  0  0  0  0  0  0  0
    7.8152   43.9729  129.0864 O   0  0  0  0  0  0  0  0  0  0  0  0
    8.1443   44.2561  126.3417 H   0  0  0  0  0  0  0  0  0  0  0  0
    8.7499   42.5918  126.4720 H   0  0  0  0  0  0  0  0  0  0  0  0
   14.3119   44.5170  129.4264 C   0  0  0  0  0  0  0  0  0  0  0  0
   13.2273   43.7092  129.2335 O   0  0  0  0  0  0  0  0  0  0  0  0
 51 52  1  0  0  0
 52 39  1  0  0  0
 39 40  1  0  0  0
 40 41  1  0  0  0
 40 42  1  0  0  0
 42 43  1  0  0  0
 43 44  1  0  0  0
 44 29  1  0  0  0
 29 28  1  0  0  0
 28  1  1  0  0  0
  1  2  1  0  0  0
  2  3  1  0  0  0
  3  4  2  0  0  0
  4  5  1  0  0  0
  5  6  1  0  0  0
  5  7  1  0  0  0
  7  8  1  0  0  0
  3 11  1  0  0  0
 11 12  2  0  0  0
 11 13  1  0  0  0
 13 15  1  0  0  0
 15 16  1  0  0  0
 16 17  1  0  0  0
 16 18  1  0  0  0
 18 19  1  0  0  0
 18 20  1  0  0  0
 20 21  1  0  0  0
 20 22  1  0  0  0
 22 23  1  0  0  0
 29 30  1  0  0  0
 30 31  1  0  0  0
 31 32  2  0  0  0
 32 33  1  0  0  0
 33 34  2  0  0  0
 33 35  1  0  0  0
 35 36  1  0  0  0
 36 37  2  0  0  0
 42 46  1  0  0  0
 46 47  1  0  0  0
 46 48  2  0  0  0
 44 39  1  0  0  0
  7  1  1  0  0  0
 22 15  1  0  0  0
 36 30  1  0  0  0
 41 45  1  0  0  0
  6  9  1  0  0  0
  8 10  1  0  0  0
 13 14  1  0  0  0
 17 24  1  0  0  0
 19 25  1  0  0  0
 21 26  1  0  0  0
 23 27  1  0  0  0
 35 38  1  0  0  0
 47 49  1  0  0  0
 47 50  1  0  0  0
M  END
> <minimizedAffinity>
6.73013

> <CNNscore>
0.3788577318

> <CNNaffinity>
6.3150453568

> <CNN_VS>
2.3925037384

> <CNNaffinity_variance>
1.2315714359

$$$$
[H]O[C@@]1([H])C([H])=C(C(=O)N([H])[C@]2([H])[C@]([H])(O[H])[C@]([H])(O[H])[C@]([H])(O[H])[C@@]2([H])O[H])O[C@]([H])(O[C@@]([H])(n2c([H])c([H])c(=O)n([H])c2=O)[C@@]2([H])O[C@@]([H])(C(=O)N([H])[H])[C@]([H])(O[H])[C@]2([H])OC([H])([H])[H])[C@@]1([H])O[H]


 52 55  0  0  0  0  0  0  0  0999 V2000
   12.4286   45.3302  131.9240 C   0  0  0  0  0  0  0  0  0  0  0  0
   11.1554   45.8715  132.0220 O   0  0  0  0  0  0  0  0  0  0  0  0
   10.8488   47.1168  132.5656 C   0  0  0  0  0  0  0  0  0  0  0  0
   11.5647   47.4985  133.6015 C   0  0  0  0  0  0  0  0  0  0  0  0
   12.6257   46.5672  134.0874 C   0  0  0  0  0  0  0  0  0  0  0  0
   13.5392   47.1909  134.9146 O   0  0  0  0  0  0  0  0  0  0  0  0
   13.3711   46.0726  132.8678 C   0  0  0  0  0  0  0  0  0  0  0  0
   13.9026   47.2148  132.2395 O   0  0  0  0  0  0  0  0  0  0  0  0
   13.9539   46.5146  135.5139 H   0  0  0  0  0  0  0  0  0  0  0  0
   14.2368   47.8234  132.9638 H   0  0  0  0  0  0  0  0  0  0  0  0
    9.8046   47.9628  132.0375 C   0  0  0  0  0  0  0  0  0  0  0  0
    9.8246   49.2166  132.2514 O   0  0  0  0  0  0  0  0  0  0  0  0
    8.7498   47.4070  131.2781 N   0  0  0  0  0  0  0  0  0  0  0  0
    8.6699   46.4082  131.0680 H   0  0  0  0  0  0  0  0  0  0  0  0
    7.7142   48.2950  130.7617 C   0  0  0  0  0  0  0  0  0  0  0  0
    6.6963   47.4469  130.0517 C   0  0  0  0  0  0  0  0  0  0  0  0
    7.2732   46.4606  129.2636 O   0  0  0  0  0  0  0  0  0  0  0  0
    5.9770   48.4718  129.1991 C   0  0  0  0  0  0  0  0  0  0  0  0
    5.2278   47.8954  128.1900 O   0  0  0  0  0  0  0  0  0  0  0  0
    7.1412   49.2693  128.6490 C   0  0  0  0  0  0  0  0  0  0  0  0
    7.5617   48.7405  127.4088 O   0  0  0  0  0  0  0  0  0  0  0  0
    8.2537   49.1640  129.6429 C   0  0  0  0  0  0  0  0  0  0  0  0
    8.5688   50.4516  130.0792 O   0  0  0  0  0  0  0  0  0  0  0  0
    8.1001   46.8158  128.9008 H   0  0  0  0  0  0  0  0  0  0  0  0
    5.7470   47.1466  127.8011 H   0  0  0  0  0  0  0  0  0  0  0  0
    8.3115   49.3430  127.1270 H   0  0  0  0  0  0  0  0  0  0  0  0
    9.0927   50.3565  130.9031 H   0  0  0  0  0  0  0  0  0  0  0  0
   12.5045   43.9653  132.1418 O   0  0  0  0  0  0  0  0  0  0  0  0
   11.3095   43.4177  132.5889 C   0  0  0  0  0  0  0  0  0  0  0  0
   10.9071   43.9631  133.8632 N   0  0  0  0  0  0  0  0  0  0  0  0
    9.7351   44.6500  133.9181 C   0  0  0  0  0  0  0  0  0  0  0  0
    9.2709   45.2014  135.0867 C   0  0  0  0  0  0  0  0  0  0  0  0
   10.0035   45.0623  136.2444 C   0  0  0  0  0  0  0  0  0  0  0  0
    9.5796   45.5669  137.3165 O   0  0  0  0  0  0  0  0  0  0  0  0
   11.1520   44.3787  136.1494 N   0  0  0  0  0  0  0  0  0  0  0  0
   11.5997   43.8421  135.0035 C   0  0  0  0  0  0  0  0  0  0  0  0
   12.6873   43.2081  134.9772 O   0  0  0  0  0  0  0  0  0  0  0  0
   11.7070   44.2740  137.0303 H   0  0  0  0  0  0  0  0  0  0  0  0
    9.3166   42.3470  131.4386 C   0  0  0  0  0  0  0  0  0  0  0  0
    8.9553   42.3097  129.9417 C   0  0  0  0  0  0  0  0  0  0  0  0
    7.5845   42.2831  129.7481 O   0  0  0  0  0  0  0  0  0  0  0  0
    9.5776   43.6047  129.4698 C   0  0  0  0  0  0  0  0  0  0  0  0
   10.7598   43.6141  130.2519 O   0  0  0  0  0  0  0  0  0  0  0  0
   10.2192   43.5150  131.5583 C   0  0  0  0  0  0  0  0  0  0  0  0
    7.3615   41.4387  129.2802 H   0  0  0  0  0  0  0  0  0  0  0  0
    9.9245   43.5721  128.0442 C   0  0  0  0  0  0  0  0  0  0  0  0
    9.0083   43.0875  127.1012 N   0  0  0  0  0  0  0  0  0  0  0  0
   11.0565   43.9864  127.6841 O   0  0  0  0  0  0  0  0  0  0  0  0
    9.2090   42.3445  126.4140 H   0  0  0  0  0  0  0  0  0  0  0  0
    8.0505   43.5072  127.0916 H   0  0  0  0  0  0  0  0  0  0  0  0
    8.1045   42.0469  133.4067 C   0  0  0  0  0  0  0  0  0  0  0  0
    8.1146   42.4693  132.1075 O   0  0  0  0  0  0  0  0  0  0  0  0
 51 52  1  0  0  0
 52 39  1  0  0  0
 39 40  1  0  0  0
 40 41  1  0  0  0
 40 42  1  0  0  0
 42 43  1  0  0  0
 43 44  1  0  0  0
 44 29  1  0  0  0
 29 28  1  0  0  0
 28  1  1  0  0  0
  1  2  1  0  0  0
  2  3  1  0  0  0
  3  4  2  0  0  0
  4  5  1  0  0  0
  5  6  1  0  0  0
  5  7  1  0  0  0
  7  8  1  0  0  0
  3 11  1  0  0  0
 11 12  2  0  0  0
 11 13  1  0  0  0
 13 15  1  0  0  0
 15 16  1  0  0  0
 16 17  1  0  0  0
 16 18  1  0  0  0
 18 19  1  0  0  0
 18 20  1  0  0  0
 20 21  1  0  0  0
 20 22  1  0  0  0
 22 23  1  0  0  0
 29 30  1  0  0  0
 30 31  1  0  0  0
 31 32  2  0  0  0
 32 33  1  0  0  0
 33 34  2  0  0  0
 33 35  1  0  0  0
 35 36  1  0  0  0
 36 37  2  0  0  0
 42 46  1  0  0  0
 46 47  1  0  0  0
 46 48  2  0  0  0
 44 39  1  0  0  0
  7  1  1  0  0  0
 22 15  1  0  0  0
 36 30  1  0  0  0
 41 45  1  0  0  0
  6  9  1  0  0  0
  8 10  1  0  0  0
 13 14  1  0  0  0
 17 24  1  0  0  0
 19 25  1  0  0  0
 21 26  1  0  0  0
 23 27  1  0  0  0
 35 38  1  0  0  0
 47 49  1  0  0  0
 47 50  1  0  0  0
M  END
> <minimizedAffinity>
8.70238

> <CNNscore>
0.3598561585

> <CNNaffinity>
6.6001615524

> <CNN_VS>
2.3751087189

> <CNNaffinity_variance>
0.6624027491

$$$$
[H]O[C@@]1([H])C([H])=C(C(=O)N([H])[C@]2([H])[C@]([H])(O[H])[C@]([H])(O[H])[C@]([H])(O[H])[C@@]2([H])O[H])O[C@]([H])(O[C@@]([H])(n2c([H])c([H])c(=O)n([H])c2=O)[C@@]2([H])O[C@@]([H])(C(=O)N([H])[H])[C@]([H])(O[H])[C@]2([H])OC([H])([H])[H])[C@@]1([H])O[H]


 52 55  0  0  0  0  0  0  0  0999 V2000
   11.9731   46.0539  133.0777 C   0  0  0  0  0  0  0  0  0  0  0  0
   10.8399   46.6088  132.5020 O   0  0  0  0  0  0  0  0  0  0  0  0
    9.8203   47.2586  133.1937 C   0  0  0  0  0  0  0  0  0  0  0  0
    9.5144   46.7767  134.3793 C   0  0  0  0  0  0  0  0  0  0  0  0
   10.2839   45.5916  134.8615 C   0  0  0  0  0  0  0  0  0  0  0  0
   10.1523   45.3929  136.2221 O   0  0  0  0  0  0  0  0  0  0  0  0
   11.7434   45.8667  134.5751 C   0  0  0  0  0  0  0  0  0  0  0  0
   12.0688   47.0429  135.2769 O   0  0  0  0  0  0  0  0  0  0  0  0
   10.3141   44.4342  136.4305 H   0  0  0  0  0  0  0  0  0  0  0  0
   11.6126   46.9919  136.1692 H   0  0  0  0  0  0  0  0  0  0  0  0
    9.1209   48.4029  132.6589 C   0  0  0  0  0  0  0  0  0  0  0  0
    9.4600   49.5802  133.0012 O   0  0  0  0  0  0  0  0  0  0  0  0
    8.0525   48.2271  131.7501 N   0  0  0  0  0  0  0  0  0  0  0  0
    7.7261   47.3104  131.4320 H   0  0  0  0  0  0  0  0  0  0  0  0
    7.3714   49.4083  131.2318 C   0  0  0  0  0  0  0  0  0  0  0  0
    6.1275   48.9464  130.5254 C   0  0  0  0  0  0  0  0  0  0  0  0
    6.3410   47.8222  129.7399 O   0  0  0  0  0  0  0  0  0  0  0  0
    5.7897   50.1503  129.6703 C   0  0  0  0  0  0  0  0  0  0  0  0
    4.8892   49.8542  128.6638 O   0  0  0  0  0  0  0  0  0  0  0  0
    7.1521   50.5124  129.1167 C   0  0  0  0  0  0  0  0  0  0  0  0
    7.3698   49.8703  127.8777 O   0  0  0  0  0  0  0  0  0  0  0  0
    8.1677   50.0446  130.1098 C   0  0  0  0  0  0  0  0  0  0  0  0
    8.8951   51.1545  130.5418 O   0  0  0  0  0  0  0  0  0  0  0  0
    7.2383   47.8803  129.3753 H   0  0  0  0  0  0  0  0  0  0  0  0
    5.1281   48.9740  128.2767 H   0  0  0  0  0  0  0  0  0  0  0  0
    8.2771   50.1875  127.5934 H   0  0  0  0  0  0  0  0  0  0  0  0
    9.3589   50.8923  131.3655 H   0  0  0  0  0  0  0  0  0  0  0  0
   12.4031   44.8698  132.5040 O   0  0  0  0  0  0  0  0  0  0  0  0
   11.8493   44.6384  131.2520 C   0  0  0  0  0  0  0  0  0  0  0  0
   12.8578   44.3694  130.2551 N   0  0  0  0  0  0  0  0  0  0  0  0
   13.9303   43.6193  130.6234 C   0  0  0  0  0  0  0  0  0  0  0  0
   14.9369   43.3102  129.7423 C   0  0  0  0  0  0  0  0  0  0  0  0
   14.8712   43.7663  128.4446 C   0  0  0  0  0  0  0  0  0  0  0  0
   15.7928   43.4839  127.6356 O   0  0  0  0  0  0  0  0  0  0  0  0
   13.7989   44.5015  128.1205 N   0  0  0  0  0  0  0  0  0  0  0  0
   12.8183   44.7998  128.9871 C   0  0  0  0  0  0  0  0  0  0  0  0
   11.8333   45.4944  128.6227 O   0  0  0  0  0  0  0  0  0  0  0  0
   13.7508   44.8469  127.1340 H   0  0  0  0  0  0  0  0  0  0  0  0
    9.7924   43.5967  130.1913 C   0  0  0  0  0  0  0  0  0  0  0  0
    8.4962   43.0965  130.8564 C   0  0  0  0  0  0  0  0  0  0  0  0
    7.9422   42.0353  130.1606 O   0  0  0  0  0  0  0  0  0  0  0  0
    9.0180   42.6839  132.2145 C   0  0  0  0  0  0  0  0  0  0  0  0
    9.9705   43.7094  132.4391 O   0  0  0  0  0  0  0  0  0  0  0  0
   10.7870   43.5752  131.2884 C   0  0  0  0  0  0  0  0  0  0  0  0
    7.0456   42.3154  129.8454 H   0  0  0  0  0  0  0  0  0  0  0  0
    7.9805   42.7329  133.2513 C   0  0  0  0  0  0  0  0  0  0  0  0
    7.6214   43.9531  133.8394 N   0  0  0  0  0  0  0  0  0  0  0  0
    7.4200   41.6626  133.6019 O   0  0  0  0  0  0  0  0  0  0  0  0
    7.6100   44.1357  134.8549 H   0  0  0  0  0  0  0  0  0  0  0  0
    7.3449   44.7373  133.2053 H   0  0  0  0  0  0  0  0  0  0  0  0
    9.8223   43.1862  127.8972 C   0  0  0  0  0  0  0  0  0  0  0  0
   10.0446   42.7139  129.1596 O   0  0  0  0  0  0  0  0  0  0  0  0
 51 52  1  0  0  0
 52 39  1  0  0  0
 39 40  1  0  0  0
 40 41  1  0  0  0
 40 42  1  0  0  0
 42 43  1  0  0  0
 43 44  1  0  0  0
 44 29  1  0  0  0
 29 28  1  0  0  0
 28  1  1  0  0  0
  1  2  1  0  0  0
  2  3  1  0  0  0
  3  4  2  0  0  0
  4  5  1  0  0  0
  5  6  1  0  0  0
  5  7  1  0  0  0
  7  8  1  0  0  0
  3 11  1  0  0  0
 11 12  2  0  0  0
 11 13  1  0  0  0
 13 15  1  0  0  0
 15 16  1  0  0  0
 16 17  1  0  0  0
 16 18  1  0  0  0
 18 19  1  0  0  0
 18 20  1  0  0  0
 20 21  1  0  0  0
 20 22  1  0  0  0
 22 23  1  0  0  0
 29 30  1  0  0  0
 30 31  1  0  0  0
 31 32  2  0  0  0
 32 33  1  0  0  0
 33 34  2  0  0  0
 33 35  1  0  0  0
 35 36  1  0  0  0
 36 37  2  0  0  0
 42 46  1  0  0  0
 46 47  1  0  0  0
 46 48  2  0  0  0
 44 39  1  0  0  0
  7  1  1  0  0  0
 22 15  1  0  0  0
 36 30  1  0  0  0
 41 45  1  0  0  0
  6  9  1  0  0  0
  8 10  1  0  0  0
 13 14  1  0  0  0
 17 24  1  0  0  0
 19 25  1  0  0  0
 21 26  1  0  0  0
 23 27  1  0  0  0
 35 38  1  0  0  0
 47 49  1  0  0  0
 47 50  1  0  0  0
M  END
> <minimizedAffinity>
10.73816

> <CNNscore>
0.3587728441

> <CNNaffinity>
6.5872941017

> <CNN_VS>
2.3633422852

> <CNNaffinity_variance>
1.6095635891

$$$$
[H]O[C@@]1([H])C([H])=C(C(=O)N([H])[C@]2([H])[C@]([H])(O[H])[C@]([H])(O[H])[C@]([H])(O[H])[C@@]2([H])O[H])O[C@]([H])(O[C@@]([H])(n2c([H])c([H])c(=O)n([H])c2=O)[C@@]2([H])O[C@@]([H])(C(=O)N([H])[H])[C@]([H])(O[H])[C@]2([H])OC([H])([H])[H])[C@@]1([H])O[H]


 52 55  0  0  0  0  0  0  0  0999 V2000
   10.3766   46.0449  128.8425 C   0  0  0  0  0  0  0  0  0  0  0  0
   10.3878   45.4030  130.0720 O   0  0  0  0  0  0  0  0  0  0  0  0
   10.7643   44.0792  130.2865 C   0  0  0  0  0  0  0  0  0  0  0  0
   10.4392   43.2160  129.3481 C   0  0  0  0  0  0  0  0  0  0  0  0
    9.7055   43.7366  128.1565 C   0  0  0  0  0  0  0  0  0  0  0  0
    9.7338   42.8573  127.0917 O   0  0  0  0  0  0  0  0  0  0  0  0
   10.4075   45.0051  127.7254 C   0  0  0  0  0  0  0  0  0  0  0  0
   11.7336   44.6401  127.4252 O   0  0  0  0  0  0  0  0  0  0  0  0
    8.9473   43.0251  126.5070 H   0  0  0  0  0  0  0  0  0  0  0  0
   11.6977   43.7596  126.9453 H   0  0  0  0  0  0  0  0  0  0  0  0
   11.4747   43.6520  131.4687 C   0  0  0  0  0  0  0  0  0  0  0  0
   11.9987   42.4939  131.5194 O   0  0  0  0  0  0  0  0  0  0  0  0
   11.5951   44.5153  132.5815 N   0  0  0  0  0  0  0  0  0  0  0  0
   11.1985   45.4587  132.6105 H   0  0  0  0  0  0  0  0  0  0  0  0
   12.3210   44.0470  133.7569 C   0  0  0  0  0  0  0  0  0  0  0  0
   11.4839   42.9893  134.4204 C   0  0  0  0  0  0  0  0  0  0  0  0
   10.1384   43.3257  134.4781 O   0  0  0  0  0  0  0  0  0  0  0  0
   12.0905   42.9366  135.8074 C   0  0  0  0  0  0  0  0  0  0  0  0
   11.2767   42.2937  136.7218 O   0  0  0  0  0  0  0  0  0  0  0  0
   12.2359   44.4106  136.1236 C   0  0  0  0  0  0  0  0  0  0  0  0
   11.0897   44.8881  136.7966 O   0  0  0  0  0  0  0  0  0  0  0  0
   12.3867   45.1263  134.8192 C   0  0  0  0  0  0  0  0  0  0  0  0
   13.6164   45.7863  134.8262 O   0  0  0  0  0  0  0  0  0  0  0  0
   10.0772   44.2866  134.5981 H   0  0  0  0  0  0  0  0  0  0  0  0
   10.3397   42.5711  136.5587 H   0  0  0  0  0  0  0  0  0  0  0  0
   11.2937   45.8533  136.9736 H   0  0  0  0  0  0  0  0  0  0  0  0
   13.8232   46.0202  133.8963 H   0  0  0  0  0  0  0  0  0  0  0  0
    9.3278   46.9277  128.6509 O   0  0  0  0  0  0  0  0  0  0  0  0
    9.0320   47.6761  129.7822 C   0  0  0  0  0  0  0  0  0  0  0  0
    8.3298   48.8945  129.4572 N   0  0  0  0  0  0  0  0  0  0  0  0
    7.4425   48.8605  128.4276 C   0  0  0  0  0  0  0  0  0  0  0  0
    6.7269   49.9694  128.0490 C   0  0  0  0  0  0  0  0  0  0  0  0
    6.9030   51.1573  128.7229 C   0  0  0  0  0  0  0  0  0  0  0  0
    6.2481   52.1748  128.3773 O   0  0  0  0  0  0  0  0  0  0  0  0
    7.7855   51.1502  129.7312 N   0  0  0  0  0  0  0  0  0  0  0  0
    8.4815   50.0622  130.0962 C   0  0  0  0  0  0  0  0  0  0  0  0
    9.2963   50.1169  131.0546 O   0  0  0  0  0  0  0  0  0  0  0  0
    7.9175   52.0538  130.2421 H   0  0  0  0  0  0  0  0  0  0  0  0
    8.8832   46.9004  132.1942 C   0  0  0  0  0  0  0  0  0  0  0  0
    8.5861   45.4961  132.7532 C   0  0  0  0  0  0  0  0  0  0  0  0
    7.9283   45.5598  133.9699 O   0  0  0  0  0  0  0  0  0  0  0  0
    7.7108   44.9355  131.6548 C   0  0  0  0  0  0  0  0  0  0  0  0
    8.3537   45.4848  130.5171 O   0  0  0  0  0  0  0  0  0  0  0  0
    8.3148   46.8672  130.8270 C   0  0  0  0  0  0  0  0  0  0  0  0
    8.5068   45.1294  134.6494 H   0  0  0  0  0  0  0  0  0  0  0  0
    7.7585   43.4700  131.5941 C   0  0  0  0  0  0  0  0  0  0  0  0
    8.0285   42.7199  132.7465 N   0  0  0  0  0  0  0  0  0  0  0  0
    7.5529   42.8999  130.4916 O   0  0  0  0  0  0  0  0  0  0  0  0
    8.7716   42.0083  132.8245 H   0  0  0  0  0  0  0  0  0  0  0  0
    7.4355   42.8923  133.5905 H   0  0  0  0  0  0  0  0  0  0  0  0
    9.0959   48.5810  133.7950 C   0  0  0  0  0  0  0  0  0  0  0  0
    8.2666   47.7824  133.0597 O   0  0  0  0  0  0  0  0  0  0  0  0
 51 52  1  0  0  0
 52 39  1  0  0  0
 39 40  1  0  0  0
 40 41  1  0  0  0
 40 42  1  0  0  0
 42 43  1  0  0  0
 43 44  1  0  0  0
 44 29  1  0  0  0
 29 28  1  0  0  0
 28  1  1  0  0  0
  1  2  1  0  0  0
  2  3  1  0  0  0
  3  4  2  0  0  0
  4  5  1  0  0  0
  5  6  1  0  0  0
  5  7  1  0  0  0
  7  8  1  0  0  0
  3 11  1  0  0  0
 11 12  2  0  0  0
 11 13  1  0  0  0
 13 15  1  0  0  0
 15 16  1  0  0  0
 16 17  1  0  0  0
 16 18  1  0  0  0
 18 19  1  0  0  0
 18 20  1  0  0  0
 20 21  1  0  0  0
 20 22  1  0  0  0
 22 23  1  0  0  0
 29 30  1  0  0  0
 30 31  1  0  0  0
 31 32  2  0  0  0
 32 33  1  0  0  0
 33 34  2  0  0  0
 33 35  1  0  0  0
 35 36  1  0  0  0
 36 37  2  0  0  0
 42 46  1  0  0  0
 46 47  1  0  0  0
 46 48  2  0  0  0
 44 39  1  0  0  0
  7  1  1  0  0  0
 22 15  1  0  0  0
 36 30  1  0  0  0
 41 45  1  0  0  0
  6  9  1  0  0  0
  8 10  1  0  0  0
 13 14  1  0  0  0
 17 24  1  0  0  0
 19 25  1  0  0  0
 21 26  1  0  0  0
 23 27  1  0  0  0
 35 38  1  0  0  0
 47 49  1  0  0  0
 47 50  1  0  0  0
M  END
> <minimizedAffinity>
11.32121

> <CNNscore>
0.3369754553

> <CNNaffinity>
6.3467917442

> <CNN_VS>
2.1387131214

> <CNNaffinity_variance>
1.9341472387

$$$$
[H]O[C@@]1([H])C([H])=C(C(=O)N([H])[C@]2([H])[C@]([H])(O[H])[C@]([H])(O[H])[C@]([H])(O[H])[C@@]2([H])O[H])O[C@]([H])(O[C@@]([H])(n2c([H])c([H])c(=O)n([H])c2=O)[C@@]2([H])O[C@@]([H])(C(=O)N([H])[H])[C@]([H])(O[H])[C@]2([H])OC([H])([H])[H])[C@@]1([H])O[H]


 52 55  0  0  0  0  0  0  0  0999 V2000
   10.1238   43.7202  129.9363 C   0  0  0  0  0  0  0  0  0  0  0  0
   10.1634   45.0783  130.2146 O   0  0  0  0  0  0  0  0  0  0  0  0
    9.9287   46.0968  129.2939 C   0  0  0  0  0  0  0  0  0  0  0  0
   10.3592   45.8914  128.0676 C   0  0  0  0  0  0  0  0  0  0  0  0
   11.0503   44.5981  127.7869 C   0  0  0  0  0  0  0  0  0  0  0  0
   11.1330   44.3245  126.4355 O   0  0  0  0  0  0  0  0  0  0  0  0
   10.2221   43.5069  128.4280 C   0  0  0  0  0  0  0  0  0  0  0  0
    8.9478   43.5774  127.8339 O   0  0  0  0  0  0  0  0  0  0  0  0
   11.9056   43.7209  126.2700 H   0  0  0  0  0  0  0  0  0  0  0  0
    9.0857   43.7553  126.8560 H   0  0  0  0  0  0  0  0  0  0  0  0
    9.2508   47.3230  129.6428 C   0  0  0  0  0  0  0  0  0  0  0  0
    9.7723   48.4480  129.3590 O   0  0  0  0  0  0  0  0  0  0  0  0
    8.0015   47.2862  130.3031 N   0  0  0  0  0  0  0  0  0  0  0  0
    7.5246   46.4182  130.5623 H   0  0  0  0  0  0  0  0  0  0  0  0
    7.3482   48.5466  130.6381 C   0  0  0  0  0  0  0  0  0  0  0  0
    6.0663   48.6197  129.8564 C   0  0  0  0  0  0  0  0  0  0  0  0
    6.2133   48.1993  128.5417 O   0  0  0  0  0  0  0  0  0  0  0  0
    5.7460   50.0988  129.9210 C   0  0  0  0  0  0  0  0  0  0  0  0
    4.8037   50.4823  128.9847 O   0  0  0  0  0  0  0  0  0  0  0  0
    7.1025   50.7087  129.6353 C   0  0  0  0  0  0  0  0  0  0  0  0
    7.2570   50.9466  128.2517 O   0  0  0  0  0  0  0  0  0  0  0  0
    8.1313   49.7247  130.0934 C   0  0  0  0  0  0  0  0  0  0  0  0
    8.9123   50.3384  131.0736 O   0  0  0  0  0  0  0  0  0  0  0  0
    7.1001   48.4575  128.2444 H   0  0  0  0  0  0  0  0  0  0  0  0
    4.9977   50.0143  128.1332 H   0  0  0  0  0  0  0  0  0  0  0  0
    8.1658   51.3621  128.1745 H   0  0  0  0  0  0  0  0  0  0  0  0
    9.3920   49.6260  131.5477 H   0  0  0  0  0  0  0  0  0  0  0  0
   11.0740   42.9583  130.5941 O   0  0  0  0  0  0  0  0  0  0  0  0
   10.9025   42.9440  131.9718 C   0  0  0  0  0  0  0  0  0  0  0  0
   11.7560   43.9014  132.6337 N   0  0  0  0  0  0  0  0  0  0  0  0
   11.6190   44.0512  133.9781 C   0  0  0  0  0  0  0  0  0  0  0  0
   12.3892   44.9355  134.6922 C   0  0  0  0  0  0  0  0  0  0  0  0
   13.3319   45.6992  134.0408 C   0  0  0  0  0  0  0  0  0  0  0  0
   14.0388   46.5102  134.6937 O   0  0  0  0  0  0  0  0  0  0  0  0
   13.4368   45.5224  132.7167 N   0  0  0  0  0  0  0  0  0  0  0  0
   12.6806   44.6559  132.0249 C   0  0  0  0  0  0  0  0  0  0  0  0
   12.8268   44.5326  130.7803 O   0  0  0  0  0  0  0  0  0  0  0  0
   14.1539   46.1035  132.2238 H   0  0  0  0  0  0  0  0  0  0  0  0
    9.1523   44.1741  133.3374 C   0  0  0  0  0  0  0  0  0  0  0  0
    7.9749   43.6093  134.1546 C   0  0  0  0  0  0  0  0  0  0  0  0
    6.9021   44.4845  134.1757 O   0  0  0  0  0  0  0  0  0  0  0  0
    7.6727   42.3478  133.3773 C   0  0  0  0  0  0  0  0  0  0  0  0
    8.9875   41.9427  133.0358 O   0  0  0  0  0  0  0  0  0  0  0  0
    9.4601   43.0991  132.3664 C   0  0  0  0  0  0  0  0  0  0  0  0
    6.7420   44.7438  135.1185 H   0  0  0  0  0  0  0  0  0  0  0  0
    7.0347   41.3187  134.2066 C   0  0  0  0  0  0  0  0  0  0  0  0
    5.6526   41.1009  134.1298 N   0  0  0  0  0  0  0  0  0  0  0  0
    7.7489   40.6365  134.9858 O   0  0  0  0  0  0  0  0  0  0  0  0
    5.0105   41.1065  134.9375 H   0  0  0  0  0  0  0  0  0  0  0  0
    5.2392   40.9197  133.1865 H   0  0  0  0  0  0  0  0  0  0  0  0
    7.6274   45.2272  131.9239 C   0  0  0  0  0  0  0  0  0  0  0  0
    8.6866   45.3478  132.7782 O   0  0  0  0  0  0  0  0  0  0  0  0
 51 52  1  0  0  0
 52 39  1  0  0  0
 39 40  1  0  0  0
 40 41  1  0  0  0
 40 42  1  0  0  0
 42 43  1  0  0  0
 43 44  1  0  0  0
 44 29  1  0  0  0
 29 28  1  0  0  0
 28  1  1  0  0  0
  1  2  1  0  0  0
  2  3  1  0  0  0
  3  4  2  0  0  0
  4  5  1  0  0  0
  5  6  1  0  0  0
  5  7  1  0  0  0
  7  8  1  0  0  0
  3 11  1  0  0  0
 11 12  2  0  0  0
 11 13  1  0  0  0
 13 15  1  0  0  0
 15 16  1  0  0  0
 16 17  1  0  0  0
 16 18  1  0  0  0
 18 19  1  0  0  0
 18 20  1  0  0  0
 20 21  1  0  0  0
 20 22  1  0  0  0
 22 23  1  0  0  0
 29 30  1  0  0  0
 30 31  1  0  0  0
 31 32  2  0  0  0
 32 33  1  0  0  0
 33 34  2  0  0  0
 33 35  1  0  0  0
 35 36  1  0  0  0
 36 37  2  0  0  0
 42 46  1  0  0  0
 46 47  1  0  0  0
 46 48  2  0  0  0
 44 39  1  0  0  0
  7  1  1  0  0  0
 22 15  1  0  0  0
 36 30  1  0  0  0
 41 45  1  0  0  0
  6  9  1  0  0  0
  8 10  1  0  0  0
 13 14  1  0  0  0
 17 24  1  0  0  0
 19 25  1  0  0  0
 21 26  1  0  0  0
 23 27  1  0  0  0
 35 38  1  0  0  0
 47 49  1  0  0  0
 47 50  1  0  0  0
M  END
> <minimizedAffinity>
7.88271

> <CNNscore>
0.3231088519

> <CNNaffinity>
6.7246870995

> <CNN_VS>
2.1728060246

> <CNNaffinity_variance>
0.8649098277

$$$$
[H]O[C@@]1([H])C([H])=C(C(=O)N([H])[C@]2([H])[C@]([H])(O[H])[C@]([H])(O[H])[C@]([H])(O[H])[C@@]2([H])O[H])O[C@]([H])(O[C@@]([H])(n2c([H])c([H])c(=O)n([H])c2=O)[C@@]2([H])O[C@@]([H])(C(=O)N([H])[H])[C@]([H])(O[H])[C@]2([H])OC([H])([H])[H])[C@@]1([H])O[H]


 52 55  0  0  0  0  0  0  0  0999 V2000
   11.4751   44.2768  132.5795 C   0  0  0  0  0  0  0  0  0  0  0  0
   10.4953   45.2285  132.3389 O   0  0  0  0  0  0  0  0  0  0  0  0
   10.1841   46.2950  133.1791 C   0  0  0  0  0  0  0  0  0  0  0  0
   10.2596   46.0658  134.4726 C   0  0  0  0  0  0  0  0  0  0  0  0
   10.6679   44.6972  134.9078 C   0  0  0  0  0  0  0  0  0  0  0  0
   11.0658   44.6588  136.2300 O   0  0  0  0  0  0  0  0  0  0  0  0
   11.8543   44.2994  134.0579 C   0  0  0  0  0  0  0  0  0  0  0  0
   12.8529   45.2621  134.2983 O   0  0  0  0  0  0  0  0  0  0  0  0
   10.9375   43.7387  136.5843 H   0  0  0  0  0  0  0  0  0  0  0  0
   12.8368   45.4675  135.2804 H   0  0  0  0  0  0  0  0  0  0  0  0
    9.7965   47.5935  132.6808 C   0  0  0  0  0  0  0  0  0  0  0  0
   10.4409   48.6334  133.0292 O   0  0  0  0  0  0  0  0  0  0  0  0
    8.6974   47.7227  131.8012 N   0  0  0  0  0  0  0  0  0  0  0  0
    8.1342   46.9303  131.4802 H   0  0  0  0  0  0  0  0  0  0  0  0
    8.3376   49.0516  131.3194 C   0  0  0  0  0  0  0  0  0  0  0  0
    6.8637   49.0478  131.0239 C   0  0  0  0  0  0  0  0  0  0  0  0
    6.4492   47.8960  130.3695 O   0  0  0  0  0  0  0  0  0  0  0  0
    6.7223   50.2616  130.1288 C   0  0  0  0  0  0  0  0  0  0  0  0
    5.5260   50.2772  129.4356 O   0  0  0  0  0  0  0  0  0  0  0  0
    7.9068   50.0856  129.2014 C   0  0  0  0  0  0  0  0  0  0  0  0
    7.5288   49.3656  128.0466 O   0  0  0  0  0  0  0  0  0  0  0  0
    8.9440   49.3164  129.9556 C   0  0  0  0  0  0  0  0  0  0  0  0
   10.0953   50.1015  130.0328 O   0  0  0  0  0  0  0  0  0  0  0  0
    7.1683   47.6120  129.7832 H   0  0  0  0  0  0  0  0  0  0  0  0
    5.3314   49.3574  129.1232 H   0  0  0  0  0  0  0  0  0  0  0  0
    8.3675   49.3221  127.4995 H   0  0  0  0  0  0  0  0  0  0  0  0
   10.6588   49.7178  130.7382 H   0  0  0  0  0  0  0  0  0  0  0  0
   11.1531   42.9900  132.1838 O   0  0  0  0  0  0  0  0  0  0  0  0
   10.0262   42.9347  131.3747 C   0  0  0  0  0  0  0  0  0  0  0  0
    8.8883   42.3802  132.0681 N   0  0  0  0  0  0  0  0  0  0  0  0
    8.8847   42.4341  133.4267 C   0  0  0  0  0  0  0  0  0  0  0  0
    7.8440   41.9348  134.1702 C   0  0  0  0  0  0  0  0  0  0  0  0
    6.7660   41.3601  133.5347 C   0  0  0  0  0  0  0  0  0  0  0  0
    5.8112   40.9020  134.2145 O   0  0  0  0  0  0  0  0  0  0  0  0
    6.8067   41.3265  132.1957 N   0  0  0  0  0  0  0  0  0  0  0  0
    7.8274   41.8167  131.4751 C   0  0  0  0  0  0  0  0  0  0  0  0
    7.8077   41.7577  130.2175 O   0  0  0  0  0  0  0  0  0  0  0  0
    5.9865   40.8896  131.7149 H   0  0  0  0  0  0  0  0  0  0  0  0
    8.3886   44.3934  130.0972 C   0  0  0  0  0  0  0  0  0  0  0  0
    8.6443   45.3445  128.9128 C   0  0  0  0  0  0  0  0  0  0  0  0
    7.7713   46.4193  128.9238 O   0  0  0  0  0  0  0  0  0  0  0  0
   10.0717   45.7602  129.1890 C   0  0  0  0  0  0  0  0  0  0  0  0
   10.6008   44.5361  129.6695 O   0  0  0  0  0  0  0  0  0  0  0  0
    9.7154   44.2627  130.7419 C   0  0  0  0  0  0  0  0  0  0  0  0
    7.2347   46.3816  128.0917 H   0  0  0  0  0  0  0  0  0  0  0  0
   10.7825   46.1651  127.9706 C   0  0  0  0  0  0  0  0  0  0  0  0
   11.3393   47.4469  127.8659 N   0  0  0  0  0  0  0  0  0  0  0  0
   10.8836   45.3431  127.0237 O   0  0  0  0  0  0  0  0  0  0  0  0
   11.1531   48.1079  127.0959 H   0  0  0  0  0  0  0  0  0  0  0  0
   11.9907   47.7587  128.6222 H   0  0  0  0  0  0  0  0  0  0  0  0
    7.6579   45.0372  132.2146 C   0  0  0  0  0  0  0  0  0  0  0  0
    7.4249   45.0123  130.8688 O   0  0  0  0  0  0  0  0  0  0  0  0
 51 52  1  0  0  0
 52 39  1  0  0  0
 39 40  1  0  0  0
 40 41  1  0  0  0
 40 42  1  0  0  0
 42 43  1  0  0  0
 43 44  1  0  0  0
 44 29  1  0  0  0
 29 28  1  0  0  0
 28  1  1  0  0  0
  1  2  1  0  0  0
  2  3  1  0  0  0
  3  4  2  0  0  0
  4  5  1  0  0  0
  5  6  1  0  0  0
  5  7  1  0  0  0
  7  8  1  0  0  0
  3 11  1  0  0  0
 11 12  2  0  0  0
 11 13  1  0  0  0
 13 15  1  0  0  0
 15 16  1  0  0  0
 16 17  1  0  0  0
 16 18  1  0  0  0
 18 19  1  0  0  0
 18 20  1  0  0  0
 20 21  1  0  0  0
 20 22  1  0  0  0
 22 23  1  0  0  0
 29 30  1  0  0  0
 30 31  1  0  0  0
 31 32  2  0  0  0
 32 33  1  0  0  0
 33 34  2  0  0  0
 33 35  1  0  0  0
 35 36  1  0  0  0
 36 37  2  0  0  0
 42 46  1  0  0  0
 46 47  1  0  0  0
 46 48  2  0  0  0
 44 39  1  0  0  0
  7  1  1  0  0  0
 22 15  1  0  0  0
 36 30  1  0  0  0
 41 45  1  0  0  0
  6  9  1  0  0  0
  8 10  1  0  0  0
 13 14  1  0  0  0
 17 24  1  0  0  0
 19 25  1  0  0  0
 21 26  1  0  0  0
 23 27  1  0  0  0
 35 38  1  0  0  0
 47 49  1  0  0  0
 47 50  1  0  0  0
M  END
> <minimizedAffinity>
5.52625

> <CNNscore>
0.3199475706

> <CNNaffinity>
6.5647974014

> <CNN_VS>
2.1003909111

> <CNNaffinity_variance>
0.3442768157

$$$$
[H]O[C@@]1([H])C([H])=C(C(=O)N([H])[C@]2([H])[C@]([H])(O[H])[C@]([H])(O[H])[C@]([H])(O[H])[C@@]2([H])O[H])O[C@]([H])(O[C@@]([H])(n2c([H])c([H])c(=O)n([H])c2=O)[C@@]2([H])O[C@@]([H])(C(=O)N([H])[H])[C@]([H])(O[H])[C@]2([H])OC([H])([H])[H])[C@@]1([H])O[H]


 52 55  0  0  0  0  0  0  0  0999 V2000
   12.0972   45.2086  132.0607 C   0  0  0  0  0  0  0  0  0  0  0  0
   10.7966   45.6831  131.9763 O   0  0  0  0  0  0  0  0  0  0  0  0
   10.0486   46.1781  133.0420 C   0  0  0  0  0  0  0  0  0  0  0  0
   10.2222   45.5891  134.2057 C   0  0  0  0  0  0  0  0  0  0  0  0
   11.1953   44.4585  134.2682 C   0  0  0  0  0  0  0  0  0  0  0  0
   11.5736   44.1565  135.5619 O   0  0  0  0  0  0  0  0  0  0  0  0
   12.4322   44.8989  133.5173 C   0  0  0  0  0  0  0  0  0  0  0  0
   12.9028   46.0523  134.1733 O   0  0  0  0  0  0  0  0  0  0  0  0
   11.8668   43.2074  135.6046 H   0  0  0  0  0  0  0  0  0  0  0  0
   12.8009   45.8954  135.1591 H   0  0  0  0  0  0  0  0  0  0  0  0
    9.1248   47.2789  132.9019 C   0  0  0  0  0  0  0  0  0  0  0  0
    8.7329   47.9224  133.9269 O   0  0  0  0  0  0  0  0  0  0  0  0
    8.6463   47.6526  131.6254 N   0  0  0  0  0  0  0  0  0  0  0  0
    8.9182   47.1796  130.7591 H   0  0  0  0  0  0  0  0  0  0  0  0
    7.7146   48.7705  131.5256 C   0  0  0  0  0  0  0  0  0  0  0  0
    6.6006   48.3570  130.6049 C   0  0  0  0  0  0  0  0  0  0  0  0
    7.0546   47.6813  129.4807 O   0  0  0  0  0  0  0  0  0  0  0  0
    5.9959   49.6937  130.2278 C   0  0  0  0  0  0  0  0  0  0  0  0
    5.1773   49.6146  129.1163 O   0  0  0  0  0  0  0  0  0  0  0  0
    7.2388   50.5144  129.9530 C   0  0  0  0  0  0  0  0  0  0  0  0
    7.5858   50.4450  128.5858 O   0  0  0  0  0  0  0  0  0  0  0  0
    8.3403   49.9330  130.7807 C   0  0  0  0  0  0  0  0  0  0  0  0
    8.8040   50.9259  131.6449 O   0  0  0  0  0  0  0  0  0  0  0  0
    7.9136   48.0589  129.2336 H   0  0  0  0  0  0  0  0  0  0  0  0
    5.6044   49.0152  128.4530 H   0  0  0  0  0  0  0  0  0  0  0  0
    8.3971   51.0285  128.5089 H   0  0  0  0  0  0  0  0  0  0  0  0
    9.3204   50.4777  132.3482 H   0  0  0  0  0  0  0  0  0  0  0  0
   12.3764   44.1155  131.2587 O   0  0  0  0  0  0  0  0  0  0  0  0
   11.2458   43.5766  130.6594 C   0  0  0  0  0  0  0  0  0  0  0  0
   10.3169   43.0500  131.6305 N   0  0  0  0  0  0  0  0  0  0  0  0
    9.0355   43.5029  131.5938 C   0  0  0  0  0  0  0  0  0  0  0  0
    8.0824   43.0568  132.4757 C   0  0  0  0  0  0  0  0  0  0  0  0
    8.4202   42.1235  133.4303 C   0  0  0  0  0  0  0  0  0  0  0  0
    7.5480   41.7134  134.2394 O   0  0  0  0  0  0  0  0  0  0  0  0
    9.6921   41.7019  133.4337 N   0  0  0  0  0  0  0  0  0  0  0  0
   10.6187   42.1422  132.5683 C   0  0  0  0  0  0  0  0  0  0  0  0
   11.7991   41.7067  132.6199 O   0  0  0  0  0  0  0  0  0  0  0  0
    9.9466   40.9926  134.1597 H   0  0  0  0  0  0  0  0  0  0  0  0
   11.1571   44.6115  128.3437 C   0  0  0  0  0  0  0  0  0  0  0  0
   10.9646   46.0850  127.9378 C   0  0  0  0  0  0  0  0  0  0  0  0
   10.3052   46.1984  126.7255 O   0  0  0  0  0  0  0  0  0  0  0  0
   10.1316   46.5889  129.0949 C   0  0  0  0  0  0  0  0  0  0  0  0
   10.7311   45.8770  130.1641 O   0  0  0  0  0  0  0  0  0  0  0  0
   10.5911   44.5416  129.7104 C   0  0  0  0  0  0  0  0  0  0  0  0
   10.9146   46.6547  126.0914 H   0  0  0  0  0  0  0  0  0  0  0  0
   10.2867   48.0323  129.3095 C   0  0  0  0  0  0  0  0  0  0  0  0
   11.1834   48.5149  130.2722 N   0  0  0  0  0  0  0  0  0  0  0  0
    9.6024   48.8275  128.6152 O   0  0  0  0  0  0  0  0  0  0  0  0
   10.9371   49.1727  131.0280 H   0  0  0  0  0  0  0  0  0  0  0  0
   12.1747   48.1854  130.2238 H   0  0  0  0  0  0  0  0  0  0  0  0
    9.6672   42.8828  127.8706 C   0  0  0  0  0  0  0  0  0  0  0  0
   10.4784   43.8734  127.3941 O   0  0  0  0  0  0  0  0  0  0  0  0
 51 52  1  0  0  0
 52 39  1  0  0  0
 39 40  1  0  0  0
 40 41  1  0  0  0
 40 42  1  0  0  0
 42 43  1  0  0  0
 43 44  1  0  0  0
 44 29  1  0  0  0
 29 28  1  0  0  0
 28  1  1  0  0  0
  1  2  1  0  0  0
  2  3  1  0  0  0
  3  4  2  0  0  0
  4  5  1  0  0  0
  5  6  1  0  0  0
  5  7  1  0  0  0
  7  8  1  0  0  0
  3 11  1  0  0  0
 11 12  2  0  0  0
 11 13  1  0  0  0
 13 15  1  0  0  0
 15 16  1  0  0  0
 16 17  1  0  0  0
 16 18  1  0  0  0
 18 19  1  0  0  0
 18 20  1  0  0  0
 20 21  1  0  0  0
 20 22  1  0  0  0
 22 23  1  0  0  0
 29 30  1  0  0  0
 30 31  1  0  0  0
 31 32  2  0  0  0
 32 33  1  0  0  0
 33 34  2  0  0  0
 33 35  1  0  0  0
 35 36  1  0  0  0
 36 37  2  0  0  0
 42 46  1  0  0  0
 46 47  1  0  0  0
 46 48  2  0  0  0
 44 39  1  0  0  0
  7  1  1  0  0  0
 22 15  1  0  0  0
 36 30  1  0  0  0
 41 45  1  0  0  0
  6  9  1  0  0  0
  8 10  1  0  0  0
 13 14  1  0  0  0
 17 24  1  0  0  0
 19 25  1  0  0  0
 21 26  1  0  0  0
 23 27  1  0  0  0
 35 38  1  0  0  0
 47 49  1  0  0  0
 47 50  1  0  0  0
M  END
> <minimizedAffinity>
3.41193

> <CNNscore>
0.3104219437

> <CNNaffinity>
6.4943933487

> <CNN_VS>
2.0160021782

> <CNNaffinity_variance>
0.4960841238

$$$$
[H]O[C@@]1([H])C([H])=C(C(=O)N([H])[C@]2([H])[C@]([H])(O[H])[C@]([H])(O[H])[C@]([H])(O[H])[C@@]2([H])O[H])O[C@]([H])(O[C@@]([H])(n2c([H])c([H])c(=O)n([H])c2=O)[C@@]2([H])O[C@@]([H])(C(=O)N([H])[H])[C@]([H])(O[H])[C@]2([H])OC([H])([H])[H])[C@@]1([H])O[H]


 52 55  0  0  0  0  0  0  0  0999 V2000
   10.5353   44.7227  130.3788 C   0  0  0  0  0  0  0  0  0  0  0  0
   10.2605   46.0780  130.2714 O   0  0  0  0  0  0  0  0  0  0  0  0
    9.5606   46.6780  129.2272 C   0  0  0  0  0  0  0  0  0  0  0  0
    9.7528   46.1765  128.0260 C   0  0  0  0  0  0  0  0  0  0  0  0
   10.6937   45.0239  127.9023 C   0  0  0  0  0  0  0  0  0  0  0  0
   10.5516   44.3508  126.7045 O   0  0  0  0  0  0  0  0  0  0  0  0
   10.3571   44.0579  129.0164 C   0  0  0  0  0  0  0  0  0  0  0  0
    9.0147   43.6816  128.8209 O   0  0  0  0  0  0  0  0  0  0  0  0
   11.4047   43.8900  126.4843 H   0  0  0  0  0  0  0  0  0  0  0  0
    8.8820   43.5579  127.8340 H   0  0  0  0  0  0  0  0  0  0  0  0
    8.6653   47.7930  129.4274 C   0  0  0  0  0  0  0  0  0  0  0  0
    8.6802   48.7802  128.6252 O   0  0  0  0  0  0  0  0  0  0  0  0
    7.7638   47.7994  130.5161 N   0  0  0  0  0  0  0  0  0  0  0  0
    7.6981   47.0405  131.2000 H   0  0  0  0  0  0  0  0  0  0  0  0
    6.8752   48.9440  130.6837 C   0  0  0  0  0  0  0  0  0  0  0  0
    5.7012   48.7504  129.7651 C   0  0  0  0  0  0  0  0  0  0  0  0
    6.0711   48.2899  128.5090 O   0  0  0  0  0  0  0  0  0  0  0  0
    5.1344   50.1528  129.6843 C   0  0  0  0  0  0  0  0  0  0  0  0
    4.2596   50.3147  128.6258 O   0  0  0  0  0  0  0  0  0  0  0  0
    6.3951   50.9720  129.5017 C   0  0  0  0  0  0  0  0  0  0  0  0
    6.6713   51.1564  128.1289 O   0  0  0  0  0  0  0  0  0  0  0  0
    7.5110   50.2081  130.1401 C   0  0  0  0  0  0  0  0  0  0  0  0
    8.0572   51.0012  131.1503 O   0  0  0  0  0  0  0  0  0  0  0  0
    6.9318   48.6812  128.2906 H   0  0  0  0  0  0  0  0  0  0  0  0
    4.6285   49.8412  127.8376 H   0  0  0  0  0  0  0  0  0  0  0  0
    7.5012   51.7183  128.1193 H   0  0  0  0  0  0  0  0  0  0  0  0
    8.5886   50.4101  131.7251 H   0  0  0  0  0  0  0  0  0  0  0  0
   11.7777   44.4158  130.9064 O   0  0  0  0  0  0  0  0  0  0  0  0
   11.9289   44.8325  132.2222 C   0  0  0  0  0  0  0  0  0  0  0  0
   11.1497   46.0130  132.5094 N   0  0  0  0  0  0  0  0  0  0  0  0
    9.9446   45.8460  133.1163 C   0  0  0  0  0  0  0  0  0  0  0  0
    9.1364   46.9106  133.4305 C   0  0  0  0  0  0  0  0  0  0  0  0
    9.5458   48.1901  133.1281 C   0  0  0  0  0  0  0  0  0  0  0  0
    8.8064   49.1671  133.4154 O   0  0  0  0  0  0  0  0  0  0  0  0
   10.7391   48.3131  132.5310 N   0  0  0  0  0  0  0  0  0  0  0  0
   11.5242   47.2678  132.2268 C   0  0  0  0  0  0  0  0  0  0  0  0
   12.6376   47.4469  131.6667 O   0  0  0  0  0  0  0  0  0  0  0  0
   11.0483   49.2862  132.3023 H   0  0  0  0  0  0  0  0  0  0  0  0
   10.3098   43.1276  133.1779 C   0  0  0  0  0  0  0  0  0  0  0  0
   10.0456   42.7462  134.6468 C   0  0  0  0  0  0  0  0  0  0  0  0
    9.6748   41.4179  134.7703 O   0  0  0  0  0  0  0  0  0  0  0  0
   11.4008   43.0241  135.2577 C   0  0  0  0  0  0  0  0  0  0  0  0
   11.7660   44.1894  134.5378 O   0  0  0  0  0  0  0  0  0  0  0  0
   11.6652   43.7239  133.2030 C   0  0  0  0  0  0  0  0  0  0  0  0
    8.7610   41.3933  135.1527 H   0  0  0  0  0  0  0  0  0  0  0  0
   11.3167   43.3305  136.6904 C   0  0  0  0  0  0  0  0  0  0  0  0
   10.5454   44.4098  137.1418 N   0  0  0  0  0  0  0  0  0  0  0  0
   11.9475   42.6084  137.5049 O   0  0  0  0  0  0  0  0  0  0  0  0
   10.8931   45.1678  137.7495 H   0  0  0  0  0  0  0  0  0  0  0  0
    9.5445   44.4530  136.8420 H   0  0  0  0  0  0  0  0  0  0  0  0
   11.3487   41.5100  131.8602 C   0  0  0  0  0  0  0  0  0  0  0  0
   10.2051   41.9500  132.4642 O   0  0  0  0  0  0  0  0  0  0  0  0
 51 52  1  0  0  0
 52 39  1  0  0  0
 39 40  1  0  0  0
 40 41  1  0  0  0
 40 42  1  0  0  0
 42 43  1  0  0  0
 43 44  1  0  0  0
 44 29  1  0  0  0
 29 28  1  0  0  0
 28  1  1  0  0  0
  1  2  1  0  0  0
  2  3  1  0  0  0
  3  4  2  0  0  0
  4  5  1  0  0  0
  5  6  1  0  0  0
  5  7  1  0  0  0
  7  8  1  0  0  0
  3 11  1  0  0  0
 11 12  2  0  0  0
 11 13  1  0  0  0
 13 15  1  0  0  0
 15 16  1  0  0  0
 16 17  1  0  0  0
 16 18  1  0  0  0
 18 19  1  0  0  0
 18 20  1  0  0  0
 20 21  1  0  0  0
 20 22  1  0  0  0
 22 23  1  0  0  0
 29 30  1  0  0  0
 30 31  1  0  0  0
 31 32  2  0  0  0
 32 33  1  0  0  0
 33 34  2  0  0  0
 33 35  1  0  0  0
 35 36  1  0  0  0
 36 37  2  0  0  0
 42 46  1  0  0  0
 46 47  1  0  0  0
 46 48  2  0  0  0
 44 39  1  0  0  0
  7  1  1  0  0  0
 22 15  1  0  0  0
 36 30  1  0  0  0
 41 45  1  0  0  0
  6  9  1  0  0  0
  8 10  1  0  0  0
 13 14  1  0  0  0
 17 24  1  0  0  0
 19 25  1  0  0  0
 21 26  1  0  0  0
 23 27  1  0  0  0
 35 38  1  0  0  0
 47 49  1  0  0  0
 47 50  1  0  0  0
M  END
> <minimizedAffinity>
8.60329

> <CNNscore>
0.3073412180

> <CNNaffinity>
6.6811494827

> <CNN_VS>
2.0533926487

> <CNNaffinity_variance>
0.6540816426

$$$$
[H]c1c([H])c(C([H])([H])N2C([H])([H])C([H])([H])N(C([H])([H])[H])C([H])([H])C2([H])[H])c(C(F)(F)F)c([H])c1C(=O)N([H])c1c([H])c([H])c(C([H])([H])[H])c(C(=O)N([H])[H])c1[H]


 34 36  0  0  0  0  0  0  0  0999 V2000
    8.8963   44.6722  130.2751 C   0  0  0  0  0  0  0  0  0  0  0  0
    7.9774   45.4149  130.9662 C   0  0  0  0  0  0  0  0  0  0  0  0
    7.8078   46.7856  130.7854 C   0  0  0  0  0  0  0  0  0  0  0  0
    8.5922   47.4582  129.8679 C   0  0  0  0  0  0  0  0  0  0  0  0
    9.5068   46.7212  129.1789 C   0  0  0  0  0  0  0  0  0  0  0  0
    9.6902   45.3543  129.3458 C   0  0  0  0  0  0  0  0  0  0  0  0
   10.6968   44.6344  128.5656 C   0  0  0  0  0  0  0  0  0  0  0  0
   10.3342   43.3476  128.2093 F   0  0  0  0  0  0  0  0  0  0  0  0
   11.9541   44.6649  129.1460 F   0  0  0  0  0  0  0  0  0  0  0  0
   10.8578   45.3035  127.3431 F   0  0  0  0  0  0  0  0  0  0  0  0
    8.4186   48.9188  129.6803 C   0  0  0  0  0  0  0  0  0  0  0  0
    8.9294   49.6614  130.5216 O   0  0  0  0  0  0  0  0  0  0  0  0
    7.6953   49.4217  128.5803 N   0  0  0  0  0  0  0  0  0  0  0  0
    7.2783   48.6881  127.9008 H   0  0  0  0  0  0  0  0  0  0  0  0
    7.4317   50.7474  128.2301 C   0  0  0  0  0  0  0  0  0  0  0  0
    6.6820   51.5232  129.1083 C   0  0  0  0  0  0  0  0  0  0  0  0
    6.3885   52.8257  128.7972 C   0  0  0  0  0  0  0  0  0  0  0  0
    6.8120   53.4372  127.6129 C   0  0  0  0  0  0  0  0  0  0  0  0
    6.4496   54.8482  127.3677 C   0  0  0  0  0  0  0  0  0  0  0  0
    7.5500   52.6526  126.7613 C   0  0  0  0  0  0  0  0  0  0  0  0
    7.8576   51.3072  127.0740 C   0  0  0  0  0  0  0  0  0  0  0  0
    8.0319   53.1934  125.5035 C   0  0  0  0  0  0  0  0  0  0  0  0
    7.2864   53.1675  124.3152 N   0  0  0  0  0  0  0  0  0  0  0  0
    9.2052   53.7189  125.4975 O   0  0  0  0  0  0  0  0  0  0  0  0
    7.3583   52.3516  123.6719 H   0  0  0  0  0  0  0  0  0  0  0  0
    6.6582   53.9482  124.0325 H   0  0  0  0  0  0  0  0  0  0  0  0
    9.0131   43.2386  130.4907 C   0  0  0  0  0  0  0  0  0  0  0  0
   12.5094   44.4903  133.5453 C   0  0  0  0  0  0  0  0  0  0  0  0
   11.3171   44.2585  132.7509 N   0  0  0  0  0  0  0  0  0  0  0  0
   10.1965   44.0318  133.6382 C   0  0  0  0  0  0  0  0  0  0  0  0
    8.9398   43.6617  132.8835 C   0  0  0  0  0  0  0  0  0  0  0  0
    9.1692   42.7586  131.8105 N   0  0  0  0  0  0  0  0  0  0  0  0
   10.4800   42.1644  131.9460 C   0  0  0  0  0  0  0  0  0  0  0  0
   11.5859   43.1701  131.8645 C   0  0  0  0  0  0  0  0  0  0  0  0
 28 29  1  0  0  0
 29 30  1  0  0  0
 30 31  1  0  0  0
 31 32  1  0  0  0
 32 27  1  0  0  0
 27  1  1  0  0  0
  1  2  2  0  0  0
  2  3  1  0  0  0
  3  4  2  0  0  0
  4  5  1  0  0  0
  5  6  2  0  0  0
  6  7  1  0  0  0
  7  8  1  0  0  0
  7  9  1  0  0  0
  7 10  1  0  0  0
  4 11  1  0  0  0
 11 12  2  0  0  0
 11 13  1  0  0  0
 13 15  1  0  0  0
 15 16  2  0  0  0
 16 17  1  0  0  0
 17 18  2  0  0  0
 18 19  1  0  0  0
 18 20  1  0  0  0
 20 21  2  0  0  0
 20 22  1  0  0  0
 22 23  1  0  0  0
 22 24  2  0  0  0
 32 33  1  0  0  0
 33 34  1  0  0  0
 34 29  1  0  0  0
  6  1  1  0  0  0
 21 15  1  0  0  0
 13 14  1  0  0  0
 23 25  1  0  0  0
 23 26  1  0  0  0
M  END
> <minimizedAffinity>
6.25593

> <CNNscore>
0.3370798230

> <CNNaffinity>
6.7904906273

> <CNN_VS>
2.2889373302

> <CNNaffinity_variance>
0.1912076473

$$$$
[H]c1c([H])c(C([H])([H])N2C([H])([H])C([H])([H])N(C([H])([H])[H])C([H])([H])C2([H])[H])c(C(F)(F)F)c([H])c1C(=O)N([H])c1c([H])c([H])c(C([H])([H])[H])c(C(=O)N([H])[H])c1[H]


 34 36  0  0  0  0  0  0  0  0999 V2000
    7.2096   51.0444  129.1479 C   0  0  0  0  0  0  0  0  0  0  0  0
    8.2454   51.4941  129.9215 C   0  0  0  0  0  0  0  0  0  0  0  0
    8.8921   50.7051  130.8699 C   0  0  0  0  0  0  0  0  0  0  0  0
    8.4905   49.3970  131.0624 C   0  0  0  0  0  0  0  0  0  0  0  0
    7.4603   48.9474  130.2936 C   0  0  0  0  0  0  0  0  0  0  0  0
    6.8036   49.7192  129.3434 C   0  0  0  0  0  0  0  0  0  0  0  0
    5.7035   49.1607  128.5573 C   0  0  0  0  0  0  0  0  0  0  0  0
    6.0615   48.7362  127.2900 F   0  0  0  0  0  0  0  0  0  0  0  0
    4.5917   49.9863  128.5205 F   0  0  0  0  0  0  0  0  0  0  0  0
    5.2564   47.9978  129.2023 F   0  0  0  0  0  0  0  0  0  0  0  0
    9.1724   48.5585  132.0775 C   0  0  0  0  0  0  0  0  0  0  0  0
    9.8421   49.1402  132.9338 O   0  0  0  0  0  0  0  0  0  0  0  0
    9.0508   47.1547  132.0503 N   0  0  0  0  0  0  0  0  0  0  0  0
    8.4465   46.7381  131.2534 H   0  0  0  0  0  0  0  0  0  0  0  0
    9.6028   46.2050  132.9121 C   0  0  0  0  0  0  0  0  0  0  0  0
    9.5092   46.4267  134.2822 C   0  0  0  0  0  0  0  0  0  0  0  0
   10.0497   45.5263  135.1636 C   0  0  0  0  0  0  0  0  0  0  0  0
   10.7091   44.3637  134.7521 C   0  0  0  0  0  0  0  0  0  0  0  0
   11.2554   43.4510  135.7773 C   0  0  0  0  0  0  0  0  0  0  0  0
   10.7898   44.1658  133.3958 C   0  0  0  0  0  0  0  0  0  0  0  0
   10.2350   45.0897  132.4787 C   0  0  0  0  0  0  0  0  0  0  0  0
   11.4594   42.9911  132.8679 C   0  0  0  0  0  0  0  0  0  0  0  0
   12.8540   42.8778  132.7649 N   0  0  0  0  0  0  0  0  0  0  0  0
   10.7194   42.0144  132.4791 O   0  0  0  0  0  0  0  0  0  0  0  0
   13.3414   43.2002  131.9028 H   0  0  0  0  0  0  0  0  0  0  0  0
   13.4387   42.4664  133.5219 H   0  0  0  0  0  0  0  0  0  0  0  0
    6.5869   51.9082  128.1573 C   0  0  0  0  0  0  0  0  0  0  0  0
    7.3041   54.5977  124.2364 C   0  0  0  0  0  0  0  0  0  0  0  0
    6.8760   53.8931  125.4309 N   0  0  0  0  0  0  0  0  0  0  0  0
    6.3018   54.8440  126.3585 C   0  0  0  0  0  0  0  0  0  0  0  0
    5.9424   54.2031  127.6798 C   0  0  0  0  0  0  0  0  0  0  0  0
    6.9187   53.2817  128.1460 N   0  0  0  0  0  0  0  0  0  0  0  0
    8.1507   53.4649  127.4123 C   0  0  0  0  0  0  0  0  0  0  0  0
    8.0036   53.1843  125.9491 C   0  0  0  0  0  0  0  0  0  0  0  0
 28 29  1  0  0  0
 29 30  1  0  0  0
 30 31  1  0  0  0
 31 32  1  0  0  0
 32 27  1  0  0  0
 27  1  1  0  0  0
  1  2  2  0  0  0
  2  3  1  0  0  0
  3  4  2  0  0  0
  4  5  1  0  0  0
  5  6  2  0  0  0
  6  7  1  0  0  0
  7  8  1  0  0  0
  7  9  1  0  0  0
  7 10  1  0  0  0
  4 11  1  0  0  0
 11 12  2  0  0  0
 11 13  1  0  0  0
 13 15  1  0  0  0
 15 16  2  0  0  0
 16 17  1  0  0  0
 17 18  2  0  0  0
 18 19  1  0  0  0
 18 20  1  0  0  0
 20 21  2  0  0  0
 20 22  1  0  0  0
 22 23  1  0  0  0
 22 24  2  0  0  0
 32 33  1  0  0  0
 33 34  1  0  0  0
 34 29  1  0  0  0
  6  1  1  0  0  0
 21 15  1  0  0  0
 13 14  1  0  0  0
 23 25  1  0  0  0
 23 26  1  0  0  0
M  END
> <minimizedAffinity>
8.13363

> <CNNscore>
0.2070565373

> <CNNaffinity>
6.4841094017

> <CNN_VS>
1.3425772190

> <CNNaffinity_variance>
0.7414346933

$$$$
[H]c1c([H])c(C([H])([H])N2C([H])([H])C([H])([H])N(C([H])([H])[H])C([H])([H])C2([H])[H])c(C(F)(F)F)c([H])c1C(=O)N([H])c1c([H])c([H])c(C([H])([H])[H])c(C(=O)N([H])[H])c1[H]


 34 36  0  0  0  0  0  0  0  0999 V2000
   11.8324   44.1162  131.8480 C   0  0  0  0  0  0  0  0  0  0  0  0
   12.1231   45.4042  131.4873 C   0  0  0  0  0  0  0  0  0  0  0  0
   11.2333   46.2272  130.8010 C   0  0  0  0  0  0  0  0  0  0  0  0
    9.9850   45.7475  130.4529 C   0  0  0  0  0  0  0  0  0  0  0  0
    9.6935   44.4664  130.8110 C   0  0  0  0  0  0  0  0  0  0  0  0
   10.5676   43.6312  131.4952 C   0  0  0  0  0  0  0  0  0  0  0  0
   10.1778   42.2648  131.8430 C   0  0  0  0  0  0  0  0  0  0  0  0
    9.4523   42.1561  133.0161 F   0  0  0  0  0  0  0  0  0  0  0  0
   11.2407   41.3768  131.8198 F   0  0  0  0  0  0  0  0  0  0  0  0
    9.3065   41.7960  130.8483 F   0  0  0  0  0  0  0  0  0  0  0  0
    9.0398   46.6196  129.7150 C   0  0  0  0  0  0  0  0  0  0  0  0
    9.1179   46.6241  128.4845 O   0  0  0  0  0  0  0  0  0  0  0  0
    8.0970   47.4062  130.4068 N   0  0  0  0  0  0  0  0  0  0  0  0
    8.1129   47.3387  131.4880 H   0  0  0  0  0  0  0  0  0  0  0  0
    7.1293   48.2743  129.8974 C   0  0  0  0  0  0  0  0  0  0  0  0
    5.8691   47.7595  129.6110 C   0  0  0  0  0  0  0  0  0  0  0  0
    4.8937   48.5741  129.0966 C   0  0  0  0  0  0  0  0  0  0  0  0
    5.0990   49.9327  128.8357 C   0  0  0  0  0  0  0  0  0  0  0  0
    3.9848   50.7309  128.2847 C   0  0  0  0  0  0  0  0  0  0  0  0
    6.3501   50.4186  129.1256 C   0  0  0  0  0  0  0  0  0  0  0  0
    7.3630   49.5852  129.6565 C   0  0  0  0  0  0  0  0  0  0  0  0
    6.6646   51.8151  128.8853 C   0  0  0  0  0  0  0  0  0  0  0  0
    7.0996   52.3067  127.6454 N   0  0  0  0  0  0  0  0  0  0  0  0
    6.5322   52.6285  129.8720 O   0  0  0  0  0  0  0  0  0  0  0  0
    8.1161   52.3272  127.4198 H   0  0  0  0  0  0  0  0  0  0  0  0
    6.4406   52.6716  126.9265 H   0  0  0  0  0  0  0  0  0  0  0  0
   12.7943   43.3109  132.5837 C   0  0  0  0  0  0  0  0  0  0  0  0
   10.0500   46.2017  135.2731 C   0  0  0  0  0  0  0  0  0  0  0  0
   10.7290   45.1572  134.5286 N   0  0  0  0  0  0  0  0  0  0  0  0
   10.8835   43.9966  135.3792 C   0  0  0  0  0  0  0  0  0  0  0  0
   11.6920   42.9068  134.7124 C   0  0  0  0  0  0  0  0  0  0  0  0
   12.8165   43.3954  133.9941 N   0  0  0  0  0  0  0  0  0  0  0  0
   13.0861   44.7616  134.3820 C   0  0  0  0  0  0  0  0  0  0  0  0
   11.9633   45.6937  134.0477 C   0  0  0  0  0  0  0  0  0  0  0  0
 28 29  1  0  0  0
 29 30  1  0  0  0
 30 31  1  0  0  0
 31 32  1  0  0  0
 32 27  1  0  0  0
 27  1  1  0  0  0
  1  2  2  0  0  0
  2  3  1  0  0  0
  3  4  2  0  0  0
  4  5  1  0  0  0
  5  6  2  0  0  0
  6  7  1  0  0  0
  7  8  1  0  0  0
  7  9  1  0  0  0
  7 10  1  0  0  0
  4 11  1  0  0  0
 11 12  2  0  0  0
 11 13  1  0  0  0
 13 15  1  0  0  0
 15 16  2  0  0  0
 16 17  1  0  0  0
 17 18  2  0  0  0
 18 19  1  0  0  0
 18 20  1  0  0  0
 20 21  2  0  0  0
 20 22  1  0  0  0
 22 23  1  0  0  0
 22 24  2  0  0  0
 32 33  1  0  0  0
 33 34  1  0  0  0
 34 29  1  0  0  0
  6  1  1  0  0  0
 21 15  1  0  0  0
 13 14  1  0  0  0
 23 25  1  0  0  0
 23 26  1  0  0  0
M  END
> <minimizedAffinity>
4.70513

> <CNNscore>
0.1818068326

> <CNNaffinity>
7.1293931007

> <CNN_VS>
1.2961723804

> <CNNaffinity_variance>
0.7373821735

$$$$
[H]c1c([H])c(C([H])([H])N2C([H])([H])C([H])([H])N(C([H])([H])[H])C([H])([H])C2([H])[H])c(C(F)(F)F)c([H])c1C(=O)N([H])c1c([H])c([H])c(C([H])([H])[H])c(C(=O)N([H])[H])c1[H]


 34 36  0  0  0  0  0  0  0  0999 V2000
   11.1482   43.5983  131.9409 C   0  0  0  0  0  0  0  0  0  0  0  0
    9.8185   43.6089  132.2654 C   0  0  0  0  0  0  0  0  0  0  0  0
    8.8731   44.3848  131.5988 C   0  0  0  0  0  0  0  0  0  0  0  0
    9.2671   45.1956  130.5514 C   0  0  0  0  0  0  0  0  0  0  0  0
   10.5896   45.1864  130.2266 C   0  0  0  0  0  0  0  0  0  0  0  0
   11.5464   44.4197  130.8797 C   0  0  0  0  0  0  0  0  0  0  0  0
   12.9497   44.4670  130.4694 C   0  0  0  0  0  0  0  0  0  0  0  0
   13.5912   43.2412  130.4763 F   0  0  0  0  0  0  0  0  0  0  0  0
   13.6804   45.4258  131.1517 F   0  0  0  0  0  0  0  0  0  0  0  0
   12.9958   44.8783  129.1289 F   0  0  0  0  0  0  0  0  0  0  0  0
    8.2634   46.0285  129.8463 C   0  0  0  0  0  0  0  0  0  0  0  0
    7.8081   45.5900  128.7878 O   0  0  0  0  0  0  0  0  0  0  0  0
    7.8576   47.2693  130.3772 N   0  0  0  0  0  0  0  0  0  0  0  0
    8.3217   47.5707  131.3086 H   0  0  0  0  0  0  0  0  0  0  0  0
    6.9308   48.1836  129.8725 C   0  0  0  0  0  0  0  0  0  0  0  0
    5.6580   47.7219  129.5532 C   0  0  0  0  0  0  0  0  0  0  0  0
    4.7216   48.5831  129.0422 C   0  0  0  0  0  0  0  0  0  0  0  0
    4.9803   49.9389  128.8169 C   0  0  0  0  0  0  0  0  0  0  0  0
    3.9053   50.7897  128.2666 C   0  0  0  0  0  0  0  0  0  0  0  0
    6.2428   50.3721  129.1389 C   0  0  0  0  0  0  0  0  0  0  0  0
    7.2157   49.4904  129.6666 C   0  0  0  0  0  0  0  0  0  0  0  0
    6.6116   51.7614  128.9369 C   0  0  0  0  0  0  0  0  0  0  0  0
    7.0470   52.2739  127.7057 N   0  0  0  0  0  0  0  0  0  0  0  0
    6.5289   52.5477  129.9507 O   0  0  0  0  0  0  0  0  0  0  0  0
    8.0598   52.2597  127.4634 H   0  0  0  0  0  0  0  0  0  0  0  0
    6.3925   52.6885  127.0100 H   0  0  0  0  0  0  0  0  0  0  0  0
   12.0861   42.7500  132.6592 C   0  0  0  0  0  0  0  0  0  0  0  0
   10.4901   46.5599  135.1206 C   0  0  0  0  0  0  0  0  0  0  0  0
   10.8014   45.2898  134.4911 N   0  0  0  0  0  0  0  0  0  0  0  0
   10.8335   44.2571  135.5045 C   0  0  0  0  0  0  0  0  0  0  0  0
   11.2720   42.9234  134.9432 C   0  0  0  0  0  0  0  0  0  0  0  0
   12.3480   43.0240  134.0204 N   0  0  0  0  0  0  0  0  0  0  0  0
   12.9641   44.3270  134.1308 C   0  0  0  0  0  0  0  0  0  0  0  0
   12.0308   45.4435  133.7789 C   0  0  0  0  0  0  0  0  0  0  0  0
 28 29  1  0  0  0
 29 30  1  0  0  0
 30 31  1  0  0  0
 31 32  1  0  0  0
 32 27  1  0  0  0
 27  1  1  0  0  0
  1  2  2  0  0  0
  2  3  1  0  0  0
  3  4  2  0  0  0
  4  5  1  0  0  0
  5  6  2  0  0  0
  6  7  1  0  0  0
  7  8  1  0  0  0
  7  9  1  0  0  0
  7 10  1  0  0  0
  4 11  1  0  0  0
 11 12  2  0  0  0
 11 13  1  0  0  0
 13 15  1  0  0  0
 15 16  2  0  0  0
 16 17  1  0  0  0
 17 18  2  0  0  0
 18 19  1  0  0  0
 18 20  1  0  0  0
 20 21  2  0  0  0
 20 22  1  0  0  0
 22 23  1  0  0  0
 22 24  2  0  0  0
 32 33  1  0  0  0
 33 34  1  0  0  0
 34 29  1  0  0  0
  6  1  1  0  0  0
 21 15  1  0  0  0
 13 14  1  0  0  0
 23 25  1  0  0  0
 23 26  1  0  0  0
M  END
> <minimizedAffinity>
5.49253

> <CNNscore>
0.1743791103

> <CNNaffinity>
7.0326628685

> <CNN_VS>
1.2263494730

> <CNNaffinity_variance>
0.8586586118

$$$$
[H]c1c([H])c(C([H])([H])N2C([H])([H])C([H])([H])N(C([H])([H])[H])C([H])([H])C2([H])[H])c(C(F)(F)F)c([H])c1C(=O)N([H])c1c([H])c([H])c(C([H])([H])[H])c(C(=O)N([H])[H])c1[H]


 34 36  0  0  0  0  0  0  0  0999 V2000
   12.0994   45.2381  132.5311 C   0  0  0  0  0  0  0  0  0  0  0  0
   11.4994   46.1575  133.3484 C   0  0  0  0  0  0  0  0  0  0  0  0
   10.6303   47.1427  132.8855 C   0  0  0  0  0  0  0  0  0  0  0  0
   10.3388   47.2211  131.5370 C   0  0  0  0  0  0  0  0  0  0  0  0
   10.9345   46.3071  130.7219 C   0  0  0  0  0  0  0  0  0  0  0  0
   11.8034   45.3181  131.1653 C   0  0  0  0  0  0  0  0  0  0  0  0
   12.4033   44.3730  130.2235 C   0  0  0  0  0  0  0  0  0  0  0  0
   11.6477   43.2377  129.9902 F   0  0  0  0  0  0  0  0  0  0  0  0
   13.7140   44.0542  130.5386 F   0  0  0  0  0  0  0  0  0  0  0  0
   12.4857   45.0015  128.9719 F   0  0  0  0  0  0  0  0  0  0  0  0
    9.4205   48.2745  131.0415 C   0  0  0  0  0  0  0  0  0  0  0  0
    9.7650   49.4471  131.2044 O   0  0  0  0  0  0  0  0  0  0  0  0
    8.2062   47.9328  130.4131 N   0  0  0  0  0  0  0  0  0  0  0  0
    7.9898   46.8749  130.3245 H   0  0  0  0  0  0  0  0  0  0  0  0
    7.2240   48.7690  129.8788 C   0  0  0  0  0  0  0  0  0  0  0  0
    5.9415   48.2559  129.7142 C   0  0  0  0  0  0  0  0  0  0  0  0
    4.9504   49.0385  129.1806 C   0  0  0  0  0  0  0  0  0  0  0  0
    5.1609   50.3620  128.7805 C   0  0  0  0  0  0  0  0  0  0  0  0
    4.0289   51.1278  128.2199 C   0  0  0  0  0  0  0  0  0  0  0  0
    6.4340   50.8469  128.9519 C   0  0  0  0  0  0  0  0  0  0  0  0
    7.4632   50.0464  129.5017 C   0  0  0  0  0  0  0  0  0  0  0  0
    6.7554   52.2078  128.5626 C   0  0  0  0  0  0  0  0  0  0  0  0
    7.1227   52.5719  127.2584 N   0  0  0  0  0  0  0  0  0  0  0  0
    6.6953   53.1126  129.4739 O   0  0  0  0  0  0  0  0  0  0  0  0
    8.1240   52.5497  126.9729 H   0  0  0  0  0  0  0  0  0  0  0  0
    6.4274   52.8820  126.5480 H   0  0  0  0  0  0  0  0  0  0  0  0
   12.9816   44.2177  133.0749 C   0  0  0  0  0  0  0  0  0  0  0  0
    8.3078   43.0884  133.0465 C   0  0  0  0  0  0  0  0  0  0  0  0
    9.7319   43.2960  132.8591 N   0  0  0  0  0  0  0  0  0  0  0  0
   10.3602   42.0235  132.5756 C   0  0  0  0  0  0  0  0  0  0  0  0
   11.8651   42.1396  132.4880 C   0  0  0  0  0  0  0  0  0  0  0  0
   12.4264   42.9842  133.4835 N   0  0  0  0  0  0  0  0  0  0  0  0
   11.4519   43.2253  134.5236 C   0  0  0  0  0  0  0  0  0  0  0  0
   10.2373   43.9462  134.0271 C   0  0  0  0  0  0  0  0  0  0  0  0
 28 29  1  0  0  0
 29 30  1  0  0  0
 30 31  1  0  0  0
 31 32  1  0  0  0
 32 27  1  0  0  0
 27  1  1  0  0  0
  1  2  2  0  0  0
  2  3  1  0  0  0
  3  4  2  0  0  0
  4  5  1  0  0  0
  5  6  2  0  0  0
  6  7  1  0  0  0
  7  8  1  0  0  0
  7  9  1  0  0  0
  7 10  1  0  0  0
  4 11  1  0  0  0
 11 12  2  0  0  0
 11 13  1  0  0  0
 13 15  1  0  0  0
 15 16  2  0  0  0
 16 17  1  0  0  0
 17 18  2  0  0  0
 18 19  1  0  0  0
 18 20  1  0  0  0
 20 21  2  0  0  0
 20 22  1  0  0  0
 22 23  1  0  0  0
 22 24  2  0  0  0
 32 33  1  0  0  0
 33 34  1  0  0  0
 34 29  1  0  0  0
  6  1  1  0  0  0
 21 15  1  0  0  0
 13 14  1  0  0  0
 23 25  1  0  0  0
 23 26  1  0  0  0
M  END
> <minimizedAffinity>
4.28315

> <CNNscore>
0.1543147117

> <CNNaffinity>
6.8422799110

> <CNN_VS>
1.0558644533

> <CNNaffinity_variance>
0.4061915874

$$$$
[H]c1c([H])c(C([H])([H])N2C([H])([H])C([H])([H])N(C([H])([H])[H])C([H])([H])C2([H])[H])c(C(F)(F)F)c([H])c1C(=O)N([H])c1c([H])c([H])c(C([H])([H])[H])c(C(=O)N([H])[H])c1[H]


 34 36  0  0  0  0  0  0  0  0999 V2000
    9.5490   44.9324  130.4429 C   0  0  0  0  0  0  0  0  0  0  0  0
    9.9466   45.6267  129.3324 C   0  0  0  0  0  0  0  0  0  0  0  0
    9.6801   46.9801  129.1385 C   0  0  0  0  0  0  0  0  0  0  0  0
    8.9807   47.6854  130.0991 C   0  0  0  0  0  0  0  0  0  0  0  0
    8.5843   46.9967  131.2051 C   0  0  0  0  0  0  0  0  0  0  0  0
    8.8408   45.6478  131.4156 C   0  0  0  0  0  0  0  0  0  0  0  0
    8.3793   44.9802  132.6327 C   0  0  0  0  0  0  0  0  0  0  0  0
    9.0275   45.3804  133.7877 F   0  0  0  0  0  0  0  0  0  0  0  0
    8.3558   43.6000  132.5165 F   0  0  0  0  0  0  0  0  0  0  0  0
    7.0390   45.3381  132.8419 F   0  0  0  0  0  0  0  0  0  0  0  0
    8.6888   49.1241  129.8904 C   0  0  0  0  0  0  0  0  0  0  0  0
    9.0963   49.9134  130.7454 O   0  0  0  0  0  0  0  0  0  0  0  0
    7.9726   49.5555  128.7559 N   0  0  0  0  0  0  0  0  0  0  0  0
    7.6506   48.7843  128.0665 H   0  0  0  0  0  0  0  0  0  0  0  0
    7.6099   50.8510  128.3822 C   0  0  0  0  0  0  0  0  0  0  0  0
    6.7957   51.5803  129.2427 C   0  0  0  0  0  0  0  0  0  0  0  0
    6.4047   52.8511  128.9083 C   0  0  0  0  0  0  0  0  0  0  0  0
    6.7887   53.4745  127.7167 C   0  0  0  0  0  0  0  0  0  0  0  0
    6.3200   54.8490  127.4460 C   0  0  0  0  0  0  0  0  0  0  0  0
    7.5916   52.7359  126.8829 C   0  0  0  0  0  0  0  0  0  0  0  0
    7.9999   51.4236  127.2198 C   0  0  0  0  0  0  0  0  0  0  0  0
    8.0397   53.2922  125.6194 C   0  0  0  0  0  0  0  0  0  0  0  0
    7.2723   53.2597  124.4454 N   0  0  0  0  0  0  0  0  0  0  0  0
    9.2032   53.8385  125.5943 O   0  0  0  0  0  0  0  0  0  0  0  0
    7.3463   52.4489  123.7960 H   0  0  0  0  0  0  0  0  0  0  0  0
    6.6250   54.0307  124.1793 H   0  0  0  0  0  0  0  0  0  0  0  0
    9.8757   43.5240  130.6005 C   0  0  0  0  0  0  0  0  0  0  0  0
   12.8981   45.2459  133.9203 C   0  0  0  0  0  0  0  0  0  0  0  0
   11.9736   44.5340  133.0572 N   0  0  0  0  0  0  0  0  0  0  0  0
   12.4345   43.1718  132.8950 C   0  0  0  0  0  0  0  0  0  0  0  0
   11.5879   42.3990  131.9090 C   0  0  0  0  0  0  0  0  0  0  0  0
   11.2297   43.1521  130.7584 N   0  0  0  0  0  0  0  0  0  0  0  0
   12.0581   44.3337  130.6725 C   0  0  0  0  0  0  0  0  0  0  0  0
   11.8694   45.2620  131.8318 C   0  0  0  0  0  0  0  0  0  0  0  0
 28 29  1  0  0  0
 29 30  1  0  0  0
 30 31  1  0  0  0
 31 32  1  0  0  0
 32 27  1  0  0  0
 27  1  1  0  0  0
  1  2  2  0  0  0
  2  3  1  0  0  0
  3  4  2  0  0  0
  4  5  1  0  0  0
  5  6  2  0  0  0
  6  7  1  0  0  0
  7  8  1  0  0  0
  7  9  1  0  0  0
  7 10  1  0  0  0
  4 11  1  0  0  0
 11 12  2  0  0  0
 11 13  1  0  0  0
 13 15  1  0  0  0
 15 16  2  0  0  0
 16 17  1  0  0  0
 17 18  2  0  0  0
 18 19  1  0  0  0
 18 20  1  0  0  0
 20 21  2  0  0  0
 20 22  1  0  0  0
 22 23  1  0  0  0
 22 24  2  0  0  0
 32 33  1  0  0  0
 33 34  1  0  0  0
 34 29  1  0  0  0
  6  1  1  0  0  0
 21 15  1  0  0  0
 13 14  1  0  0  0
 23 25  1  0  0  0
 23 26  1  0  0  0
M  END
> <minimizedAffinity>
8.31782

> <CNNscore>
0.1513404548

> <CNNaffinity>
6.4036598206

> <CNN_VS>
0.9691327810

> <CNNaffinity_variance>
0.1396122277

$$$$
[H]c1c([H])c(C([H])([H])N2C([H])([H])C([H])([H])N(C([H])([H])[H])C([H])([H])C2([H])[H])c(C(F)(F)F)c([H])c1C(=O)N([H])c1c([H])c([H])c(C([H])([H])[H])c(C(=O)N([H])[H])c1[H]


 34 36  0  0  0  0  0  0  0  0999 V2000
    9.7510   44.2423  133.1061 C   0  0  0  0  0  0  0  0  0  0  0  0
    9.1864   43.8043  131.9386 C   0  0  0  0  0  0  0  0  0  0  0  0
    8.3307   44.5821  131.1622 C   0  0  0  0  0  0  0  0  0  0  0  0
    8.0169   45.8662  131.5646 C   0  0  0  0  0  0  0  0  0  0  0  0
    8.5778   46.3043  132.7258 C   0  0  0  0  0  0  0  0  0  0  0  0
    9.4328   45.5433  133.5129 C   0  0  0  0  0  0  0  0  0  0  0  0
    9.9940   46.0881  134.7491 C   0  0  0  0  0  0  0  0  0  0  0  0
   11.0293   46.9867  134.5622 F   0  0  0  0  0  0  0  0  0  0  0  0
   10.3329   45.1075  135.6671 F   0  0  0  0  0  0  0  0  0  0  0  0
    8.9929   46.8357  135.3871 F   0  0  0  0  0  0  0  0  0  0  0  0
    7.0995   46.6925  130.7435 C   0  0  0  0  0  0  0  0  0  0  0  0
    6.1684   46.1130  130.1801 O   0  0  0  0  0  0  0  0  0  0  0  0
    7.2979   48.0824  130.6214 N   0  0  0  0  0  0  0  0  0  0  0  0
    8.1491   48.4964  131.1486 H   0  0  0  0  0  0  0  0  0  0  0  0
    6.5482   49.0210  129.9098 C   0  0  0  0  0  0  0  0  0  0  0  0
    5.2205   48.7211  129.6224 C   0  0  0  0  0  0  0  0  0  0  0  0
    4.4524   49.6087  128.9141 C   0  0  0  0  0  0  0  0  0  0  0  0
    4.9413   50.8342  128.4503 C   0  0  0  0  0  0  0  0  0  0  0  0
    4.0354   51.7268  127.6988 C   0  0  0  0  0  0  0  0  0  0  0  0
    6.2540   51.1086  128.7453 C   0  0  0  0  0  0  0  0  0  0  0  0
    7.0543   50.1985  129.4757 C   0  0  0  0  0  0  0  0  0  0  0  0
    6.8568   52.3529  128.3035 C   0  0  0  0  0  0  0  0  0  0  0  0
    7.3985   52.5368  127.0225 N   0  0  0  0  0  0  0  0  0  0  0  0
    6.8870   53.3255  129.1438 O   0  0  0  0  0  0  0  0  0  0  0  0
    8.3992   52.3115  126.8420 H   0  0  0  0  0  0  0  0  0  0  0  0
    6.8385   52.9074  126.2267 H   0  0  0  0  0  0  0  0  0  0  0  0
   10.6555   43.3922  133.8639 C   0  0  0  0  0  0  0  0  0  0  0  0
   12.6743   44.5863  129.6663 C   0  0  0  0  0  0  0  0  0  0  0  0
   12.1200   44.4469  131.0003 N   0  0  0  0  0  0  0  0  0  0  0  0
   13.0637   44.9778  131.9605 C   0  0  0  0  0  0  0  0  0  0  0  0
   12.6093   44.7574  133.3856 C   0  0  0  0  0  0  0  0  0  0  0  0
   12.0426   43.4731  133.6067 N   0  0  0  0  0  0  0  0  0  0  0  0
   12.3710   42.5993  132.5028 C   0  0  0  0  0  0  0  0  0  0  0  0
   11.8010   43.0682  131.2003 C   0  0  0  0  0  0  0  0  0  0  0  0
 28 29  1  0  0  0
 29 30  1  0  0  0
 30 31  1  0  0  0
 31 32  1  0  0  0
 32 27  1  0  0  0
 27  1  1  0  0  0
  1  2  2  0  0  0
  2  3  1  0  0  0
  3  4  2  0  0  0
  4  5  1  0  0  0
  5  6  2  0  0  0
  6  7  1  0  0  0
  7  8  1  0  0  0
  7  9  1  0  0  0
  7 10  1  0  0  0
  4 11  1  0  0  0
 11 12  2  0  0  0
 11 13  1  0  0  0
 13 15  1  0  0  0
 15 16  2  0  0  0
 16 17  1  0  0  0
 17 18  2  0  0  0
 18 19  1  0  0  0
 18 20  1  0  0  0
 20 21  2  0  0  0
 20 22  1  0  0  0
 22 23  1  0  0  0
 22 24  2  0  0  0
 32 33  1  0  0  0
 33 34  1  0  0  0
 34 29  1  0  0  0
  6  1  1  0  0  0
 21 15  1  0  0  0
 13 14  1  0  0  0
 23 25  1  0  0  0
 23 26  1  0  0  0
M  END
> <minimizedAffinity>
8.14289

> <CNNscore>
0.1479585618

> <CNNaffinity>
7.0160379410

> <CNN_VS>
1.0380828381

> <CNNaffinity_variance>
0.5791531801

$$$$
[H]c1c([H])c(C([H])([H])N2C([H])([H])C([H])([H])N(C([H])([H])[H])C([H])([H])C2([H])[H])c(C(F)(F)F)c([H])c1C(=O)N([H])c1c([H])c([H])c(C([H])([H])[H])c(C(=O)N([H])[H])c1[H]


 34 36  0  0  0  0  0  0  0  0999 V2000
   11.3568   45.4680  133.2859 C   0  0  0  0  0  0  0  0  0  0  0  0
   11.6011   45.9256  132.0193 C   0  0  0  0  0  0  0  0  0  0  0  0
   10.8501   46.9270  131.4081 C   0  0  0  0  0  0  0  0  0  0  0  0
    9.7982   47.5080  132.0904 C   0  0  0  0  0  0  0  0  0  0  0  0
    9.5535   47.0545  133.3509 C   0  0  0  0  0  0  0  0  0  0  0  0
   10.2912   46.0573  133.9763 C   0  0  0  0  0  0  0  0  0  0  0  0
    9.9632   45.6254  135.3350 C   0  0  0  0  0  0  0  0  0  0  0  0
    9.8246   46.6565  136.2471 F   0  0  0  0  0  0  0  0  0  0  0  0
   10.8131   44.6396  135.8089 F   0  0  0  0  0  0  0  0  0  0  0  0
    8.7004   45.0150  135.3028 F   0  0  0  0  0  0  0  0  0  0  0  0
    8.9926   48.5682  131.4380 C   0  0  0  0  0  0  0  0  0  0  0  0
    9.3640   49.7341  131.5892 O   0  0  0  0  0  0  0  0  0  0  0  0
    7.8507   48.2400  130.6800 N   0  0  0  0  0  0  0  0  0  0  0  0
    7.6020   47.1876  130.6131 H   0  0  0  0  0  0  0  0  0  0  0  0
    6.9772   49.0838  129.9912 C   0  0  0  0  0  0  0  0  0  0  0  0
    5.6709   48.6520  129.7852 C   0  0  0  0  0  0  0  0  0  0  0  0
    4.7842   49.4434  129.1018 C   0  0  0  0  0  0  0  0  0  0  0  0
    5.1277   50.6966  128.5846 C   0  0  0  0  0  0  0  0  0  0  0  0
    4.1013   51.4788  127.8656 C   0  0  0  0  0  0  0  0  0  0  0  0
    6.4219   51.1019  128.7995 C   0  0  0  0  0  0  0  0  0  0  0  0
    7.3440   50.2917  129.5036 C   0  0  0  0  0  0  0  0  0  0  0  0
    6.8780   52.3852  128.2975 C   0  0  0  0  0  0  0  0  0  0  0  0
    7.3117   52.5889  126.9789 N   0  0  0  0  0  0  0  0  0  0  0  0
    6.8777   53.3744  129.1185 O   0  0  0  0  0  0  0  0  0  0  0  0
    8.3140   52.4500  126.7320 H   0  0  0  0  0  0  0  0  0  0  0  0
    6.6673   52.8909  126.2188 H   0  0  0  0  0  0  0  0  0  0  0  0
   12.1893   44.4344  133.8807 C   0  0  0  0  0  0  0  0  0  0  0  0
    8.8100   42.6342  130.9720 C   0  0  0  0  0  0  0  0  0  0  0  0
    9.9563   43.2095  131.6515 N   0  0  0  0  0  0  0  0  0  0  0  0
   11.1632   42.5934  131.1432 C   0  0  0  0  0  0  0  0  0  0  0  0
   12.3944   43.0543  131.8901 C   0  0  0  0  0  0  0  0  0  0  0  0
   12.2019   43.1486  133.2949 N   0  0  0  0  0  0  0  0  0  0  0  0
   10.9953   42.4462  133.6693 C   0  0  0  0  0  0  0  0  0  0  0  0
    9.7638   43.0379  133.0572 C   0  0  0  0  0  0  0  0  0  0  0  0
 28 29  1  0  0  0
 29 30  1  0  0  0
 30 31  1  0  0  0
 31 32  1  0  0  0
 32 27  1  0  0  0
 27  1  1  0  0  0
  1  2  2  0  0  0
  2  3  1  0  0  0
  3  4  2  0  0  0
  4  5  1  0  0  0
  5  6  2  0  0  0
  6  7  1  0  0  0
  7  8  1  0  0  0
  7  9  1  0  0  0
  7 10  1  0  0  0
  4 11  1  0  0  0
 11 12  2  0  0  0
 11 13  1  0  0  0
 13 15  1  0  0  0
 15 16  2  0  0  0
 16 17  1  0  0  0
 17 18  2  0  0  0
 18 19  1  0  0  0
 18 20  1  0  0  0
 20 21  2  0  0  0
 20 22  1  0  0  0
 22 23  1  0  0  0
 22 24  2  0  0  0
 32 33  1  0  0  0
 33 34  1  0  0  0
 34 29  1  0  0  0
  6  1  1  0  0  0
 21 15  1  0  0  0
 13 14  1  0  0  0
 23 25  1  0  0  0
 23 26  1  0  0  0
M  END
> <minimizedAffinity>
6.78894

> <CNNscore>
0.1454774737

> <CNNaffinity>
6.9370665550

> <CNN_VS>
1.0091868639

> <CNNaffinity_variance>
0.5529478192

$$$$
[H]c1c([H])c(C([H])([H])N2C([H])([H])C([H])([H])N(C([H])([H])[H])C([H])([H])C2([H])[H])c(C(F)(F)F)c([H])c1C(=O)N([H])c1c([H])c([H])c(C([H])([H])[H])c(C(=O)N([H])[H])c1[H]


 34 36  0  0  0  0  0  0  0  0999 V2000
    8.7488   44.0723  131.6757 C   0  0  0  0  0  0  0  0  0  0  0  0
    8.3432   45.3312  131.3233 C   0  0  0  0  0  0  0  0  0  0  0  0
    8.7222   46.4799  132.0140 C   0  0  0  0  0  0  0  0  0  0  0  0
    9.5500   46.3757  133.1155 C   0  0  0  0  0  0  0  0  0  0  0  0
    9.9551   45.1241  133.4677 C   0  0  0  0  0  0  0  0  0  0  0  0
    9.5876   43.9677  132.7914 C   0  0  0  0  0  0  0  0  0  0  0  0
   10.0660   42.6583  133.2348 C   0  0  0  0  0  0  0  0  0  0  0  0
   10.8470   41.9892  132.3093 F   0  0  0  0  0  0  0  0  0  0  0  0
    9.0530   41.8495  133.7231 F   0  0  0  0  0  0  0  0  0  0  0  0
   10.9171   42.8566  134.3324 F   0  0  0  0  0  0  0  0  0  0  0  0
    9.9476   47.5967  133.8568 C   0  0  0  0  0  0  0  0  0  0  0  0
   10.0535   47.5049  135.0818 O   0  0  0  0  0  0  0  0  0  0  0  0
   10.1900   48.8056  133.1743 N   0  0  0  0  0  0  0  0  0  0  0  0
   10.0626   48.7864  132.0986 H   0  0  0  0  0  0  0  0  0  0  0  0
   10.5761   50.0456  133.6871 C   0  0  0  0  0  0  0  0  0  0  0  0
   11.9146   50.2334  134.0164 C   0  0  0  0  0  0  0  0  0  0  0  0
   12.3340   51.4309  134.5356 C   0  0  0  0  0  0  0  0  0  0  0  0
   11.4681   52.5060  134.7597 C   0  0  0  0  0  0  0  0  0  0  0  0
   12.0146   53.7592  135.3193 C   0  0  0  0  0  0  0  0  0  0  0  0
   10.1521   52.2978  134.4277 C   0  0  0  0  0  0  0  0  0  0  0  0
    9.7102   51.0652  133.8915 C   0  0  0  0  0  0  0  0  0  0  0  0
    9.1734   53.3510  134.6276 C   0  0  0  0  0  0  0  0  0  0  0  0
    8.4998   53.5595  135.8405 N   0  0  0  0  0  0  0  0  0  0  0  0
    8.9238   54.1222  133.6298 O   0  0  0  0  0  0  0  0  0  0  0  0
    7.6000   53.0699  136.0284 H   0  0  0  0  0  0  0  0  0  0  0  0
    8.8583   54.2044  136.5752 H   0  0  0  0  0  0  0  0  0  0  0  0
    8.3381   42.9110  130.9025 C   0  0  0  0  0  0  0  0  0  0  0  0
   10.8414   45.8814  128.0686 C   0  0  0  0  0  0  0  0  0  0  0  0
   10.2962   44.9299  129.0192 N   0  0  0  0  0  0  0  0  0  0  0  0
   11.1022   43.7281  128.9977 C   0  0  0  0  0  0  0  0  0  0  0  0
   10.5247   42.6407  129.8752 C   0  0  0  0  0  0  0  0  0  0  0  0
    9.1110   42.5299  129.7826 N   0  0  0  0  0  0  0  0  0  0  0  0
    8.6416   43.2460  128.6179 C   0  0  0  0  0  0  0  0  0  0  0  0
    8.9233   44.7149  128.6854 C   0  0  0  0  0  0  0  0  0  0  0  0
 28 29  1  0  0  0
 29 30  1  0  0  0
 30 31  1  0  0  0
 31 32  1  0  0  0
 32 27  1  0  0  0
 27  1  1  0  0  0
  1  2  2  0  0  0
  2  3  1  0  0  0
  3  4  2  0  0  0
  4  5  1  0  0  0
  5  6  2  0  0  0
  6  7  1  0  0  0
  7  8  1  0  0  0
  7  9  1  0  0  0
  7 10  1  0  0  0
  4 11  1  0  0  0
 11 12  2  0  0  0
 11 13  1  0  0  0
 13 15  1  0  0  0
 15 16  2  0  0  0
 16 17  1  0  0  0
 17 18  2  0  0  0
 18 19  1  0  0  0
 18 20  1  0  0  0
 20 21  2  0  0  0
 20 22  1  0  0  0
 22 23  1  0  0  0
 22 24  2  0  0  0
 32 33  1  0  0  0
 33 34  1  0  0  0
 34 29  1  0  0  0
  6  1  1  0  0  0
 21 15  1  0  0  0
 13 14  1  0  0  0
 23 25  1  0  0  0
 23 26  1  0  0  0
M  END
> <minimizedAffinity>
29.35748

> <CNNscore>
0.1382962763

> <CNNaffinity>
6.5452485085

> <CNN_VS>
0.9051834941

> <CNNaffinity_variance>
0.3522559404

$$$$
[H]O[C@]1([H])[C@]([H])(n2c([H])c([H])c(=O)n([H])c2=S)O[C@]([H])(C([H])([H])OP(=O)(O[H])OP(=O)(O[H])OP(=O)(O[H])O[H])[C@]1([H])O[H]


 36 37  0  0  0  0  0  0  0  0999 V2000
   11.5208   45.8982  130.5498 O   0  0  0  0  0  0  0  0  0  0  0  0
   10.1427   45.8291  130.7395 C   0  0  0  0  0  0  0  0  0  0  0  0
    9.4134   46.7566  129.7903 C   0  0  0  0  0  0  0  0  0  0  0  0
   10.2105   47.8291  129.3952 O   0  0  0  0  0  0  0  0  0  0  0  0
    8.2705   47.2282  130.6446 C   0  0  0  0  0  0  0  0  0  0  0  0
    8.7592   47.2704  131.9433 O   0  0  0  0  0  0  0  0  0  0  0  0
    9.7018   46.2879  132.0805 C   0  0  0  0  0  0  0  0  0  0  0  0
   11.7507   45.2852  129.8032 H   0  0  0  0  0  0  0  0  0  0  0  0
   10.5245   48.2912  130.2028 H   0  0  0  0  0  0  0  0  0  0  0  0
    7.8305   48.5685  130.3066 N   0  0  0  0  0  0  0  0  0  0  0  0
    8.4153   49.6804  130.7918 C   0  0  0  0  0  0  0  0  0  0  0  0
    7.9880   50.9495  130.4632 C   0  0  0  0  0  0  0  0  0  0  0  0
    6.9207   51.1041  129.6047 C   0  0  0  0  0  0  0  0  0  0  0  0
    6.4931   52.2584  129.2744 O   0  0  0  0  0  0  0  0  0  0  0  0
    6.3468   49.9853  129.1283 N   0  0  0  0  0  0  0  0  0  0  0  0
    6.7872   48.7721  129.4682 C   0  0  0  0  0  0  0  0  0  0  0  0
    6.0537   47.4614  128.8606 S   0  0  0  0  0  0  0  0  0  0  0  0
    5.5384   50.1240  128.4784 H   0  0  0  0  0  0  0  0  0  0  0  0
   10.9041   46.7290  132.8888 C   0  0  0  0  0  0  0  0  0  0  0  0
   11.6938   45.6205  133.1292 O   0  0  0  0  0  0  0  0  0  0  0  0
   10.9375   44.4723  134.0884 P   0  0  0  0  0  0  0  0  0  0  0  0
   12.0760   43.7169  135.1017 O   0  0  0  0  0  0  0  0  0  0  0  0
    9.9804   45.2141  135.0110 O   0  0  0  0  0  0  0  0  0  0  0  0
   12.4368   42.8868  134.6612 H   0  0  0  0  0  0  0  0  0  0  0  0
   10.1256   43.3686  133.1226 O   0  0  0  0  0  0  0  0  0  0  0  0
   11.1297   42.7117  131.9246 P   0  0  0  0  0  0  0  0  0  0  0  0
   11.0492   41.0126  132.0828 O   0  0  0  0  0  0  0  0  0  0  0  0
   12.5173   43.2253  132.1688 O   0  0  0  0  0  0  0  0  0  0  0  0
   10.0890   40.7793  132.0356 H   0  0  0  0  0  0  0  0  0  0  0  0
   10.6262   43.1633  130.3871 O   0  0  0  0  0  0  0  0  0  0  0  0
    8.9737   42.8379  130.1923 P   0  0  0  0  0  0  0  0  0  0  0  0
    8.6732   41.1772  130.2646 O   0  0  0  0  0  0  0  0  0  0  0  0
    8.4597   43.4917  128.7067 O   0  0  0  0  0  0  0  0  0  0  0  0
    8.1604   43.5058  131.2758 O   0  0  0  0  0  0  0  0  0  0  0  0
    8.4895   40.9544  131.2099 H   0  0  0  0  0  0  0  0  0  0  0  0
    7.9942   44.3488  128.8488 H   0  0  0  0  0  0  0  0  0  0  0  0
  1  2  1  0  0  0
  2  3  1  0  0  0
  3  4  1  0  0  0
  3  5  1  0  0  0
  5  6  1  0  0  0
  6  7  1  0  0  0
  7 19  1  0  0  0
 19 20  1  0  0  0
 20 21  1  0  0  0
 21 22  1  0  0  0
 21 23  2  0  0  0
 21 25  1  0  0  0
 25 26  1  0  0  0
 26 27  1  0  0  0
 26 28  2  0  0  0
 26 30  1  0  0  0
 30 31  1  0  0  0
 31 32  1  0  0  0
 31 33  1  0  0  0
 31 34  2  0  0  0
  5 10  1  0  0  0
 10 11  1  0  0  0
 11 12  2  0  0  0
 12 13  1  0  0  0
 13 14  2  0  0  0
 13 15  1  0  0  0
 15 16  1  0  0  0
 16 17  2  0  0  0
  7  2  1  0  0  0
 16 10  1  0  0  0
  1  8  1  0  0  0
  4  9  1  0  0  0
 22 24  1  0  0  0
 27 29  1  0  0  0
 32 35  1  0  0  0
 33 36  1  0  0  0
 15 18  1  0  0  0
M  END
> <minimizedAffinity>
-4.67672

> <CNNscore>
0.4877488911

> <CNNaffinity>
6.3488922119

> <CNN_VS>
3.0966651440

> <CNNaffinity_variance>
9.2289562225

$$$$
[H]O[C@]1([H])[C@]([H])(n2c([H])c([H])c(=O)n([H])c2=S)O[C@]([H])(C([H])([H])OP(=O)(O[H])OP(=O)(O[H])OP(=O)(O[H])O[H])[C@]1([H])O[H]


 36 37  0  0  0  0  0  0  0  0999 V2000
   10.6726   45.7639  127.8395 O   0  0  0  0  0  0  0  0  0  0  0  0
   11.4465   45.4799  128.9621 C   0  0  0  0  0  0  0  0  0  0  0  0
   10.9893   44.2008  129.6316 C   0  0  0  0  0  0  0  0  0  0  0  0
    9.6455   43.9324  129.3786 O   0  0  0  0  0  0  0  0  0  0  0  0
   11.2043   44.5241  131.0833 C   0  0  0  0  0  0  0  0  0  0  0  0
   10.9670   45.8861  131.2084 O   0  0  0  0  0  0  0  0  0  0  0  0
   11.3307   46.4955  130.0384 C   0  0  0  0  0  0  0  0  0  0  0  0
   11.0516   45.2515  127.0780 H   0  0  0  0  0  0  0  0  0  0  0  0
    9.1191   44.7117  129.6613 H   0  0  0  0  0  0  0  0  0  0  0  0
   10.2681   43.8421  131.9567 N   0  0  0  0  0  0  0  0  0  0  0  0
    8.9333   44.0005  131.8734 C   0  0  0  0  0  0  0  0  0  0  0  0
    8.0531   43.3467  132.7095 C   0  0  0  0  0  0  0  0  0  0  0  0
    8.5424   42.4930  133.6747 C   0  0  0  0  0  0  0  0  0  0  0  0
    7.7647   41.8687  134.4682 O   0  0  0  0  0  0  0  0  0  0  0  0
    9.8770   42.3448  133.7461 N   0  0  0  0  0  0  0  0  0  0  0  0
   10.6997   42.9942  132.9198 C   0  0  0  0  0  0  0  0  0  0  0  0
   12.2991   42.7738  133.0554 S   0  0  0  0  0  0  0  0  0  0  0  0
   10.2284   41.6927  134.4853 H   0  0  0  0  0  0  0  0  0  0  0  0
   10.3664   47.5824  129.6117 C   0  0  0  0  0  0  0  0  0  0  0  0
   10.5019   48.6469  130.4827 O   0  0  0  0  0  0  0  0  0  0  0  0
    9.2122   48.7943  131.5436 P   0  0  0  0  0  0  0  0  0  0  0  0
    8.9407   47.3165  132.3411 O   0  0  0  0  0  0  0  0  0  0  0  0
    9.6262   49.7847  132.6229 O   0  0  0  0  0  0  0  0  0  0  0  0
    8.2635   46.7686  131.8367 H   0  0  0  0  0  0  0  0  0  0  0  0
    7.8524   49.3217  130.7172 O   0  0  0  0  0  0  0  0  0  0  0  0
    7.1027   48.0663  129.8586 P   0  0  0  0  0  0  0  0  0  0  0  0
    7.1696   46.6756  130.8485 O   0  0  0  0  0  0  0  0  0  0  0  0
    7.8666   47.8748  128.5825 O   0  0  0  0  0  0  0  0  0  0  0  0
    6.7573   46.9336  131.7100 H   0  0  0  0  0  0  0  0  0  0  0  0
    5.5025   48.4353  129.5054 O   0  0  0  0  0  0  0  0  0  0  0  0
    5.2713   50.1149  129.5199 P   0  0  0  0  0  0  0  0  0  0  0  0
    5.2099   50.7016  131.1028 O   0  0  0  0  0  0  0  0  0  0  0  0
    3.8386   50.4763  128.6742 O   0  0  0  0  0  0  0  0  0  0  0  0
    6.3986   50.8214  128.8048 O   0  0  0  0  0  0  0  0  0  0  0  0
    6.1334   50.9409  131.3617 H   0  0  0  0  0  0  0  0  0  0  0  0
    4.0448   50.7880  127.7622 H   0  0  0  0  0  0  0  0  0  0  0  0
  1  2  1  0  0  0
  2  3  1  0  0  0
  3  4  1  0  0  0
  3  5  1  0  0  0
  5  6  1  0  0  0
  6  7  1  0  0  0
  7 19  1  0  0  0
 19 20  1  0  0  0
 20 21  1  0  0  0
 21 22  1  0  0  0
 21 23  2  0  0  0
 21 25  1  0  0  0
 25 26  1  0  0  0
 26 27  1  0  0  0
 26 28  2  0  0  0
 26 30  1  0  0  0
 30 31  1  0  0  0
 31 32  1  0  0  0
 31 33  1  0  0  0
 31 34  2  0  0  0
  5 10  1  0  0  0
 10 11  1  0  0  0
 11 12  2  0  0  0
 12 13  1  0  0  0
 13 14  2  0  0  0
 13 15  1  0  0  0
 15 16  1  0  0  0
 16 17  2  0  0  0
  7  2  1  0  0  0
 16 10  1  0  0  0
  1  8  1  0  0  0
  4  9  1  0  0  0
 22 24  1  0  0  0
 27 29  1  0  0  0
 32 35  1  0  0  0
 33 36  1  0  0  0
 15 18  1  0  0  0
M  END
> <minimizedAffinity>
1.30058

> <CNNscore>
0.4530701041

> <CNNaffinity>
5.7263603210

> <CNN_VS>
2.5944426060

> <CNNaffinity_variance>
4.7330522537

$$$$
[H]O[C@]1([H])[C@]([H])(n2c([H])c([H])c(=O)n([H])c2=S)O[C@]([H])(C([H])([H])OP(=O)(O[H])OP(=O)(O[H])OP(=O)(O[H])O[H])[C@]1([H])O[H]


 36 37  0  0  0  0  0  0  0  0999 V2000
   10.6516   43.8730  128.9117 O   0  0  0  0  0  0  0  0  0  0  0  0
    9.3117   44.0684  129.2377 C   0  0  0  0  0  0  0  0  0  0  0  0
    8.7590   45.3044  128.5594 C   0  0  0  0  0  0  0  0  0  0  0  0
    9.7576   46.2350  128.2791 O   0  0  0  0  0  0  0  0  0  0  0  0
    7.8186   45.8308  129.6067 C   0  0  0  0  0  0  0  0  0  0  0  0
    8.3890   45.5027  130.8290 O   0  0  0  0  0  0  0  0  0  0  0  0
    9.0814   44.3318  130.6802 C   0  0  0  0  0  0  0  0  0  0  0  0
   10.6808   43.3883  128.0456 H   0  0  0  0  0  0  0  0  0  0  0  0
   10.2245   46.4450  129.1171 H   0  0  0  0  0  0  0  0  0  0  0  0
    7.6842   47.2747  129.5682 N   0  0  0  0  0  0  0  0  0  0  0  0
    8.7290   48.1155  129.6908 C   0  0  0  0  0  0  0  0  0  0  0  0
    8.5888   49.4867  129.6526 C   0  0  0  0  0  0  0  0  0  0  0  0
    7.3358   50.0353  129.4828 C   0  0  0  0  0  0  0  0  0  0  0  0
    7.1608   51.2971  129.4418 O   0  0  0  0  0  0  0  0  0  0  0  0
    6.3022   49.1837  129.3619 N   0  0  0  0  0  0  0  0  0  0  0  0
    6.4750   47.8610  129.4035 C   0  0  0  0  0  0  0  0  0  0  0  0
    5.1896   46.8864  129.2518 S   0  0  0  0  0  0  0  0  0  0  0  0
    5.3595   49.6199  129.2338 H   0  0  0  0  0  0  0  0  0  0  0  0
   10.4049   44.3284  131.4164 C   0  0  0  0  0  0  0  0  0  0  0  0
   10.2295   43.6685  132.6181 O   0  0  0  0  0  0  0  0  0  0  0  0
   11.3021   44.1707  133.8045 P   0  0  0  0  0  0  0  0  0  0  0  0
   11.1202   43.2133  135.1987 O   0  0  0  0  0  0  0  0  0  0  0  0
   12.7076   43.8979  133.2874 O   0  0  0  0  0  0  0  0  0  0  0  0
   10.4624   43.6399  135.8301 H   0  0  0  0  0  0  0  0  0  0  0  0
   11.0732   45.7999  134.1265 O   0  0  0  0  0  0  0  0  0  0  0  0
    9.4480   46.1635  134.4451 P   0  0  0  0  0  0  0  0  0  0  0  0
    9.3695   46.7279  136.0556 O   0  0  0  0  0  0  0  0  0  0  0  0
    8.6599   44.9009  134.2619 O   0  0  0  0  0  0  0  0  0  0  0  0
   10.0127   47.4772  136.1139 H   0  0  0  0  0  0  0  0  0  0  0  0
    8.8678   47.3442  133.4008 O   0  0  0  0  0  0  0  0  0  0  0  0
   10.0985   48.4465  133.0203 P   0  0  0  0  0  0  0  0  0  0  0  0
   11.2024   48.5806  134.2920 O   0  0  0  0  0  0  0  0  0  0  0  0
    9.3908   49.9522  132.6590 O   0  0  0  0  0  0  0  0  0  0  0  0
   10.8565   48.0063  131.7903 O   0  0  0  0  0  0  0  0  0  0  0  0
   11.9111   47.9095  134.1356 H   0  0  0  0  0  0  0  0  0  0  0  0
    9.3443   50.0872  131.6838 H   0  0  0  0  0  0  0  0  0  0  0  0
  1  2  1  0  0  0
  2  3  1  0  0  0
  3  4  1  0  0  0
  3  5  1  0  0  0
  5  6  1  0  0  0
  6  7  1  0  0  0
  7 19  1  0  0  0
 19 20  1  0  0  0
 20 21  1  0  0  0
 21 22  1  0  0  0
 21 23  2  0  0  0
 21 25  1  0  0  0
 25 26  1  0  0  0
 26 27  1  0  0  0
 26 28  2  0  0  0
 26 30  1  0  0  0
 30 31  1  0  0  0
 31 32  1  0  0  0
 31 33  1  0  0  0
 31 34  2  0  0  0
  5 10  1  0  0  0
 10 11  1  0  0  0
 11 12  2  0  0  0
 12 13  1  0  0  0
 13 14  2  0  0  0
 13 15  1  0  0  0
 15 16  1  0  0  0
 16 17  2  0  0  0
  7  2  1  0  0  0
 16 10  1  0  0  0
  1  8  1  0  0  0
  4  9  1  0  0  0
 22 24  1  0  0  0
 27 29  1  0  0  0
 32 35  1  0  0  0
 33 36  1  0  0  0
 15 18  1  0  0  0
M  END
> <minimizedAffinity>
-4.67628

> <CNNscore>
0.4448094070

> <CNNaffinity>
6.2965173721

> <CNN_VS>
2.8007502556

> <CNNaffinity_variance>
11.2076292038

$$$$
[H]O[C@]1([H])[C@]([H])(n2c([H])c([H])c(=O)n([H])c2=S)O[C@]([H])(C([H])([H])OP(=O)(O[H])OP(=O)(O[H])OP(=O)(O[H])O[H])[C@]1([H])O[H]


 36 37  0  0  0  0  0  0  0  0999 V2000
    8.5541   43.6364  128.6043 O   0  0  0  0  0  0  0  0  0  0  0  0
    9.6946   43.3975  129.3672 C   0  0  0  0  0  0  0  0  0  0  0  0
    9.3558   43.2973  130.8397 C   0  0  0  0  0  0  0  0  0  0  0  0
    8.1979   44.0046  131.1569 O   0  0  0  0  0  0  0  0  0  0  0  0
   10.5604   43.9350  131.4727 C   0  0  0  0  0  0  0  0  0  0  0  0
   10.9828   44.9143  130.5840 O   0  0  0  0  0  0  0  0  0  0  0  0
   10.6887   44.4985  129.3139 C   0  0  0  0  0  0  0  0  0  0  0  0
    8.1242   42.7590  128.4268 H   0  0  0  0  0  0  0  0  0  0  0  0
    8.3164   44.9339  130.8625 H   0  0  0  0  0  0  0  0  0  0  0  0
   10.2538   44.5957  132.7272 N   0  0  0  0  0  0  0  0  0  0  0  0
    9.1538   45.3502  132.9132 C   0  0  0  0  0  0  0  0  0  0  0  0
    8.8730   45.9734  134.1106 C   0  0  0  0  0  0  0  0  0  0  0  0
    9.7427   45.8287  135.1702 C   0  0  0  0  0  0  0  0  0  0  0  0
    9.5220   46.3871  136.2944 O   0  0  0  0  0  0  0  0  0  0  0  0
   10.8365   45.0727  134.9699 N   0  0  0  0  0  0  0  0  0  0  0  0
   11.0766   44.4838  133.7965 C   0  0  0  0  0  0  0  0  0  0  0  0
   12.4125   43.5848  133.6171 S   0  0  0  0  0  0  0  0  0  0  0  0
   11.4840   44.9753  135.7863 H   0  0  0  0  0  0  0  0  0  0  0  0
   10.1675   45.6133  128.4313 C   0  0  0  0  0  0  0  0  0  0  0  0
    8.9821   46.0745  128.9720 O   0  0  0  0  0  0  0  0  0  0  0  0
    9.0912   47.6454  129.5472 P   0  0  0  0  0  0  0  0  0  0  0  0
    8.6475   47.6980  131.1885 O   0  0  0  0  0  0  0  0  0  0  0  0
   10.5594   48.0443  129.4955 O   0  0  0  0  0  0  0  0  0  0  0  0
    7.6649   47.8980  131.2768 H   0  0  0  0  0  0  0  0  0  0  0  0
    8.1465   48.6628  128.6077 O   0  0  0  0  0  0  0  0  0  0  0  0
    7.3104   49.8013  129.5457 P   0  0  0  0  0  0  0  0  0  0  0  0
    6.9595   51.1264  128.5263 O   0  0  0  0  0  0  0  0  0  0  0  0
    8.2087   50.1974  130.6793 O   0  0  0  0  0  0  0  0  0  0  0  0
    6.4779   50.7518  127.7477 H   0  0  0  0  0  0  0  0  0  0  0  0
    5.8827   49.1618  130.1575 O   0  0  0  0  0  0  0  0  0  0  0  0
    5.5391   47.6775  129.4137 P   0  0  0  0  0  0  0  0  0  0  0  0
    6.5273   46.4524  130.0270 O   0  0  0  0  0  0  0  0  0  0  0  0
    5.7440   47.8488  127.7322 O   0  0  0  0  0  0  0  0  0  0  0  0
    4.1016   47.2767  129.6466 O   0  0  0  0  0  0  0  0  0  0  0  0
    6.0510   46.0492  130.7936 H   0  0  0  0  0  0  0  0  0  0  0  0
    4.8718   47.9619  127.2874 H   0  0  0  0  0  0  0  0  0  0  0  0
  1  2  1  0  0  0
  2  3  1  0  0  0
  3  4  1  0  0  0
  3  5  1  0  0  0
  5  6  1  0  0  0
  6  7  1  0  0  0
  7 19  1  0  0  0
 19 20  1  0  0  0
 20 21  1  0  0  0
 21 22  1  0  0  0
 21 23  2  0  0  0
 21 25  1  0  0  0
 25 26  1  0  0  0
 26 27  1  0  0  0
 26 28  2  0  0  0
 26 30  1  0  0  0
 30 31  1  0  0  0
 31 32  1  0  0  0
 31 33  1  0  0  0
 31 34  2  0  0  0
  5 10  1  0  0  0
 10 11  1  0  0  0
 11 12  2  0  0  0
 12 13  1  0  0  0
 13 14  2  0  0  0
 13 15  1  0  0  0
 15 16  1  0  0  0
 16 17  2  0  0  0
  7  2  1  0  0  0
 16 10  1  0  0  0
  1  8  1  0  0  0
  4  9  1  0  0  0
 22 24  1  0  0  0
 27 29  1  0  0  0
 32 35  1  0  0  0
 33 36  1  0  0  0
 15 18  1  0  0  0
M  END
> <minimizedAffinity>
-4.99699

> <CNNscore>
0.4443951845

> <CNNaffinity>
5.7091851234

> <CNN_VS>
2.5371344090

> <CNNaffinity_variance>
2.9890444279

$$$$
[H]O[C@]1([H])[C@]([H])(n2c([H])c([H])c(=O)n([H])c2=S)O[C@]([H])(C([H])([H])OP(=O)(O[H])OP(=O)(O[H])OP(=O)(O[H])O[H])[C@]1([H])O[H]


 36 37  0  0  0  0  0  0  0  0999 V2000
    8.8642   44.0778  129.0222 O   0  0  0  0  0  0  0  0  0  0  0  0
    7.7917   44.8296  129.4959 C   0  0  0  0  0  0  0  0  0  0  0  0
    8.0549   46.3131  129.3439 C   0  0  0  0  0  0  0  0  0  0  0  0
    9.4180   46.6021  129.3379 O   0  0  0  0  0  0  0  0  0  0  0  0
    7.3981   46.8661  130.5772 C   0  0  0  0  0  0  0  0  0  0  0  0
    7.5508   45.8947  131.5570 O   0  0  0  0  0  0  0  0  0  0  0  0
    7.5468   44.6678  130.9509 C   0  0  0  0  0  0  0  0  0  0  0  0
    8.7495   43.9789  128.0408 H   0  0  0  0  0  0  0  0  0  0  0  0
    9.8127   46.2340  130.1583 H   0  0  0  0  0  0  0  0  0  0  0  0
    8.0396   48.0728  131.0638 N   0  0  0  0  0  0  0  0  0  0  0  0
    8.9434   48.0756  132.0622 C   0  0  0  0  0  0  0  0  0  0  0  0
    9.5466   49.2294  132.5163 C   0  0  0  0  0  0  0  0  0  0  0  0
    9.2227   50.4369  131.9359 C   0  0  0  0  0  0  0  0  0  0  0  0
    9.7561   51.5272  132.3245 O   0  0  0  0  0  0  0  0  0  0  0  0
    8.3189   50.4187  130.9404 N   0  0  0  0  0  0  0  0  0  0  0  0
    7.7548   49.2823  130.5263 C   0  0  0  0  0  0  0  0  0  0  0  0
    6.6720   49.3254  129.3218 S   0  0  0  0  0  0  0  0  0  0  0  0
    8.0867   51.3454  130.5132 H   0  0  0  0  0  0  0  0  0  0  0  0
    8.5673   43.7143  131.5364 C   0  0  0  0  0  0  0  0  0  0  0  0
    8.8889   44.1522  132.8073 O   0  0  0  0  0  0  0  0  0  0  0  0
   10.2397   43.3886  133.4417 P   0  0  0  0  0  0  0  0  0  0  0  0
   10.5951   44.0160  134.9823 O   0  0  0  0  0  0  0  0  0  0  0  0
    9.8727   41.9270  133.6573 O   0  0  0  0  0  0  0  0  0  0  0  0
   11.2512   44.7755  134.9056 H   0  0  0  0  0  0  0  0  0  0  0  0
   11.5318   43.5464  132.3853 O   0  0  0  0  0  0  0  0  0  0  0  0
   11.9110   45.1710  132.0820 P   0  0  0  0  0  0  0  0  0  0  0  0
   13.6121   45.3089  132.1586 O   0  0  0  0  0  0  0  0  0  0  0  0
   11.2406   45.9950  133.1405 O   0  0  0  0  0  0  0  0  0  0  0  0
   13.9690   44.6422  131.5208 H   0  0  0  0  0  0  0  0  0  0  0  0
   11.3698   45.6545  130.5671 O   0  0  0  0  0  0  0  0  0  0  0  0
   11.8198   44.5168  129.3933 P   0  0  0  0  0  0  0  0  0  0  0  0
   11.2007   42.9896  129.7649 O   0  0  0  0  0  0  0  0  0  0  0  0
   13.5188   44.4828  129.2887 O   0  0  0  0  0  0  0  0  0  0  0  0
   11.2995   44.9114  128.0314 O   0  0  0  0  0  0  0  0  0  0  0  0
   10.3158   42.9194  129.3301 H   0  0  0  0  0  0  0  0  0  0  0  0
   13.8276   45.0018  128.5098 H   0  0  0  0  0  0  0  0  0  0  0  0
  1  2  1  0  0  0
  2  3  1  0  0  0
  3  4  1  0  0  0
  3  5  1  0  0  0
  5  6  1  0  0  0
  6  7  1  0  0  0
  7 19  1  0  0  0
 19 20  1  0  0  0
 20 21  1  0  0  0
 21 22  1  0  0  0
 21 23  2  0  0  0
 21 25  1  0  0  0
 25 26  1  0  0  0
 26 27  1  0  0  0
 26 28  2  0  0  0
 26 30  1  0  0  0
 30 31  1  0  0  0
 31 32  1  0  0  0
 31 33  1  0  0  0
 31 34  2  0  0  0
  5 10  1  0  0  0
 10 11  1  0  0  0
 11 12  2  0  0  0
 12 13  1  0  0  0
 13 14  2  0  0  0
 13 15  1  0  0  0
 15 16  1  0  0  0
 16 17  2  0  0  0
  7  2  1  0  0  0
 16 10  1  0  0  0
  1  8  1  0  0  0
  4  9  1  0  0  0
 22 24  1  0  0  0
 27 29  1  0  0  0
 32 35  1  0  0  0
 33 36  1  0  0  0
 15 18  1  0  0  0
M  END
> <minimizedAffinity>
-2.78783

> <CNNscore>
0.4321493804

> <CNNaffinity>
6.1915750504

> <CNN_VS>
2.6756854057

> <CNNaffinity_variance>
9.1641731262

$$$$
[H]O[C@]1([H])[C@]([H])(n2c([H])c([H])c(=O)n([H])c2=S)O[C@]([H])(C([H])([H])OP(=O)(O[H])OP(=O)(O[H])OP(=O)(O[H])O[H])[C@]1([H])O[H]


 36 37  0  0  0  0  0  0  0  0999 V2000
   10.6822   42.9942  133.7294 O   0  0  0  0  0  0  0  0  0  0  0  0
   11.2632   44.1945  134.1310 C   0  0  0  0  0  0  0  0  0  0  0  0
   10.2549   45.3242  134.1081 C   0  0  0  0  0  0  0  0  0  0  0  0
    9.2278   45.0868  133.1967 O   0  0  0  0  0  0  0  0  0  0  0  0
   11.1049   46.4811  133.6640 C   0  0  0  0  0  0  0  0  0  0  0  0
   12.0610   45.9452  132.8121 O   0  0  0  0  0  0  0  0  0  0  0  0
   12.3375   44.6698  133.2236 C   0  0  0  0  0  0  0  0  0  0  0  0
   10.2431   42.5938  134.5250 H   0  0  0  0  0  0  0  0  0  0  0  0
    9.6310   44.9271  132.3157 H   0  0  0  0  0  0  0  0  0  0  0  0
   10.3598   47.4695  132.9074 N   0  0  0  0  0  0  0  0  0  0  0  0
   10.6992   47.8536  131.6621 C   0  0  0  0  0  0  0  0  0  0  0  0
    9.9830   48.7943  130.9526 C   0  0  0  0  0  0  0  0  0  0  0  0
    8.8723   49.3746  131.5265 C   0  0  0  0  0  0  0  0  0  0  0  0
    8.1816   50.2481  130.9066 O   0  0  0  0  0  0  0  0  0  0  0  0
    8.5454   48.9814  132.7702 N   0  0  0  0  0  0  0  0  0  0  0  0
    9.2622   48.0676  133.4276 C   0  0  0  0  0  0  0  0  0  0  0  0
    8.8176   47.6350  134.9243 S   0  0  0  0  0  0  0  0  0  0  0  0
    7.6993   49.4338  133.1880 H   0  0  0  0  0  0  0  0  0  0  0  0
   12.4998   43.6981  132.0734 C   0  0  0  0  0  0  0  0  0  0  0  0
   12.8900   44.4121  130.9561 O   0  0  0  0  0  0  0  0  0  0  0  0
   11.6287   44.7042  129.8912 P   0  0  0  0  0  0  0  0  0  0  0  0
   12.0035   46.0290  128.8921 O   0  0  0  0  0  0  0  0  0  0  0  0
   11.5276   43.4973  128.9690 O   0  0  0  0  0  0  0  0  0  0  0  0
   11.6535   46.8808  129.2984 H   0  0  0  0  0  0  0  0  0  0  0  0
   10.2062   44.9435  130.7452 O   0  0  0  0  0  0  0  0  0  0  0  0
    8.8632   45.0804  129.7191 P   0  0  0  0  0  0  0  0  0  0  0  0
    9.4163   45.7866  128.2652 O   0  0  0  0  0  0  0  0  0  0  0  0
    7.8561   45.9510  130.4094 O   0  0  0  0  0  0  0  0  0  0  0  0
   10.1604   45.2158  127.9503 H   0  0  0  0  0  0  0  0  0  0  0  0
    8.1816   43.5792  129.3978 O   0  0  0  0  0  0  0  0  0  0  0  0
    8.4227   42.5330  130.7100 P   0  0  0  0  0  0  0  0  0  0  0  0
   10.0403   42.0573  130.8130 O   0  0  0  0  0  0  0  0  0  0  0  0
    7.3961   41.1867  130.5309 O   0  0  0  0  0  0  0  0  0  0  0  0
    8.0509   43.2041  132.0111 O   0  0  0  0  0  0  0  0  0  0  0  0
   10.5003   42.7103  131.3954 H   0  0  0  0  0  0  0  0  0  0  0  0
    6.6000   41.2803  131.1044 H   0  0  0  0  0  0  0  0  0  0  0  0
  1  2  1  0  0  0
  2  3  1  0  0  0
  3  4  1  0  0  0
  3  5  1  0  0  0
  5  6  1  0  0  0
  6  7  1  0  0  0
  7 19  1  0  0  0
 19 20  1  0  0  0
 20 21  1  0  0  0
 21 22  1  0  0  0
 21 23  2  0  0  0
 21 25  1  0  0  0
 25 26  1  0  0  0
 26 27  1  0  0  0
 26 28  2  0  0  0
 26 30  1  0  0  0
 30 31  1  0  0  0
 31 32  1  0  0  0
 31 33  1  0  0  0
 31 34  2  0  0  0
  5 10  1  0  0  0
 10 11  1  0  0  0
 11 12  2  0  0  0
 12 13  1  0  0  0
 13 14  2  0  0  0
 13 15  1  0  0  0
 15 16  1  0  0  0
 16 17  2  0  0  0
  7  2  1  0  0  0
 16 10  1  0  0  0
  1  8  1  0  0  0
  4  9  1  0  0  0
 22 24  1  0  0  0
 27 29  1  0  0  0
 32 35  1  0  0  0
 33 36  1  0  0  0
 15 18  1  0  0  0
M  END
> <minimizedAffinity>
-3.92989

> <CNNscore>
0.4182458520

> <CNNaffinity>
5.5710697174

> <CNN_VS>
2.3300766945

> <CNNaffinity_variance>
3.3795948029

$$$$
[H]O[C@]1([H])[C@]([H])(n2c([H])c([H])c(=O)n([H])c2=S)O[C@]([H])(C([H])([H])OP(=O)(O[H])OP(=O)(O[H])OP(=O)(O[H])O[H])[C@]1([H])O[H]


 36 37  0  0  0  0  0  0  0  0999 V2000
   10.8441   43.3644  127.8664 O   0  0  0  0  0  0  0  0  0  0  0  0
    9.5782   43.9424  127.8100 C   0  0  0  0  0  0  0  0  0  0  0  0
    9.6669   45.4541  127.8190 C   0  0  0  0  0  0  0  0  0  0  0  0
   10.8300   45.9036  128.4410 O   0  0  0  0  0  0  0  0  0  0  0  0
    8.4539   45.8248  128.6249 C   0  0  0  0  0  0  0  0  0  0  0  0
    8.2862   44.8039  129.5505 O   0  0  0  0  0  0  0  0  0  0  0  0
    8.7305   43.6374  128.9897 C   0  0  0  0  0  0  0  0  0  0  0  0
   11.1988   43.3307  126.9395 H   0  0  0  0  0  0  0  0  0  0  0  0
   10.8612   45.5214  129.3450 H   0  0  0  0  0  0  0  0  0  0  0  0
    8.6282   47.0571  129.3702 N   0  0  0  0  0  0  0  0  0  0  0  0
    9.8194   47.4692  129.8445 C   0  0  0  0  0  0  0  0  0  0  0  0
    9.9727   48.6429  130.5519 C   0  0  0  0  0  0  0  0  0  0  0  0
    8.8726   49.4379  130.7920 C   0  0  0  0  0  0  0  0  0  0  0  0
    8.9691   50.5304  131.4413 O   0  0  0  0  0  0  0  0  0  0  0  0
    7.6901   49.0138  130.3126 N   0  0  0  0  0  0  0  0  0  0  0  0
    7.5787   47.8714  129.6316 C   0  0  0  0  0  0  0  0  0  0  0  0
    6.1259   47.4139  129.0792 S   0  0  0  0  0  0  0  0  0  0  0  0
    6.8675   49.6313  130.5055 H   0  0  0  0  0  0  0  0  0  0  0  0
    9.5027   42.7694  129.9611 C   0  0  0  0  0  0  0  0  0  0  0  0
    9.4763   43.3794  131.2011 O   0  0  0  0  0  0  0  0  0  0  0  0
   10.9287   44.1149  131.6010 P   0  0  0  0  0  0  0  0  0  0  0  0
   11.7393   43.2008  132.7845 O   0  0  0  0  0  0  0  0  0  0  0  0
   11.8114   44.0751  130.3614 O   0  0  0  0  0  0  0  0  0  0  0  0
   11.4969   43.5298  133.7044 H   0  0  0  0  0  0  0  0  0  0  0  0
   10.6501   45.6894  132.1044 O   0  0  0  0  0  0  0  0  0  0  0  0
    9.2862   45.8057  133.1050 P   0  0  0  0  0  0  0  0  0  0  0  0
    7.9154   45.6099  132.1046 O   0  0  0  0  0  0  0  0  0  0  0  0
    9.3135   47.1603  133.7478 O   0  0  0  0  0  0  0  0  0  0  0  0
    8.0456   44.7530  131.6278 H   0  0  0  0  0  0  0  0  0  0  0  0
    9.2953   44.6194  134.2942 O   0  0  0  0  0  0  0  0  0  0  0  0
   10.6248   44.8324  135.3245 P   0  0  0  0  0  0  0  0  0  0  0  0
   10.1437   45.4998  136.7999 O   0  0  0  0  0  0  0  0  0  0  0  0
   11.7671   45.8247  134.5441 O   0  0  0  0  0  0  0  0  0  0  0  0
   11.3040   43.5137  135.6093 O   0  0  0  0  0  0  0  0  0  0  0  0
    9.9378   44.7477  137.4075 H   0  0  0  0  0  0  0  0  0  0  0  0
   12.4961   45.2804  134.1650 H   0  0  0  0  0  0  0  0  0  0  0  0
  1  2  1  0  0  0
  2  3  1  0  0  0
  3  4  1  0  0  0
  3  5  1  0  0  0
  5  6  1  0  0  0
  6  7  1  0  0  0
  7 19  1  0  0  0
 19 20  1  0  0  0
 20 21  1  0  0  0
 21 22  1  0  0  0
 21 23  2  0  0  0
 21 25  1  0  0  0
 25 26  1  0  0  0
 26 27  1  0  0  0
 26 28  2  0  0  0
 26 30  1  0  0  0
 30 31  1  0  0  0
 31 32  1  0  0  0
 31 33  1  0  0  0
 31 34  2  0  0  0
  5 10  1  0  0  0
 10 11  1  0  0  0
 11 12  2  0  0  0
 12 13  1  0  0  0
 13 14  2  0  0  0
 13 15  1  0  0  0
 15 16  1  0  0  0
 16 17  2  0  0  0
  7  2  1  0  0  0
 16 10  1  0  0  0
  1  8  1  0  0  0
  4  9  1  0  0  0
 22 24  1  0  0  0
 27 29  1  0  0  0
 32 35  1  0  0  0
 33 36  1  0  0  0
 15 18  1  0  0  0
M  END
> <minimizedAffinity>
-2.82166

> <CNNscore>
0.3915535808

> <CNNaffinity>
5.7243542671

> <CNN_VS>
2.2413914204

> <CNNaffinity_variance>
5.8288860321

$$$$
[H]O[C@]1([H])[C@]([H])(n2c([H])c([H])c(=O)n([H])c2=S)O[C@]([H])(C([H])([H])OP(=O)(O[H])OP(=O)(O[H])OP(=O)(O[H])O[H])[C@]1([H])O[H]


 36 37  0  0  0  0  0  0  0  0999 V2000
    9.0264   43.0515  128.8160 O   0  0  0  0  0  0  0  0  0  0  0  0
   10.2337   43.4720  129.3686 C   0  0  0  0  0  0  0  0  0  0  0  0
   10.2344   43.3024  130.8734 C   0  0  0  0  0  0  0  0  0  0  0  0
    8.9457   43.3407  131.4021 O   0  0  0  0  0  0  0  0  0  0  0  0
   11.0272   44.5006  131.3138 C   0  0  0  0  0  0  0  0  0  0  0  0
   10.7416   45.5030  130.3970 O   0  0  0  0  0  0  0  0  0  0  0  0
   10.5024   44.9199  129.1823 C   0  0  0  0  0  0  0  0  0  0  0  0
    9.0831   42.0686  128.6868 H   0  0  0  0  0  0  0  0  0  0  0  0
    8.5239   44.1815  131.1204 H   0  0  0  0  0  0  0  0  0  0  0  0
   10.6313   44.9879  132.6216 N   0  0  0  0  0  0  0  0  0  0  0  0
    9.6028   45.8363  132.8116 C   0  0  0  0  0  0  0  0  0  0  0  0
    9.2359   46.2928  134.0599 C   0  0  0  0  0  0  0  0  0  0  0  0
    9.9396   45.8736  135.1685 C   0  0  0  0  0  0  0  0  0  0  0  0
    9.6346   46.2706  136.3405 O   0  0  0  0  0  0  0  0  0  0  0  0
   10.9638   45.0268  134.9635 N   0  0  0  0  0  0  0  0  0  0  0  0
   11.2911   44.6053  133.7402 C   0  0  0  0  0  0  0  0  0  0  0  0
   12.5360   43.5846  133.5579 S   0  0  0  0  0  0  0  0  0  0  0  0
   11.4852   44.7205  135.8177 H   0  0  0  0  0  0  0  0  0  0  0  0
    9.3515   45.5595  128.4343 C   0  0  0  0  0  0  0  0  0  0  0  0
    9.0239   46.7406  129.0730 O   0  0  0  0  0  0  0  0  0  0  0  0
    7.5205   46.6906  129.8131 P   0  0  0  0  0  0  0  0  0  0  0  0
    6.2903   46.8056  128.6439 O   0  0  0  0  0  0  0  0  0  0  0  0
    7.3734   45.3131  130.4442 O   0  0  0  0  0  0  0  0  0  0  0  0
    6.0229   47.7673  128.5139 H   0  0  0  0  0  0  0  0  0  0  0  0
    7.4108   47.9060  130.9625 O   0  0  0  0  0  0  0  0  0  0  0  0
    8.6945   49.0078  130.8481 P   0  0  0  0  0  0  0  0  0  0  0  0
    9.7511   48.4191  129.6417 O   0  0  0  0  0  0  0  0  0  0  0  0
    9.3619   49.0625  132.1899 O   0  0  0  0  0  0  0  0  0  0  0  0
    9.1978   48.2950  128.8311 H   0  0  0  0  0  0  0  0  0  0  0  0
    8.1511   50.5407  130.4282 O   0  0  0  0  0  0  0  0  0  0  0  0
    6.9893   50.4342  129.1980 P   0  0  0  0  0  0  0  0  0  0  0  0
    7.3792   49.2069  128.1047 O   0  0  0  0  0  0  0  0  0  0  0  0
    6.8818   51.9428  128.4162 O   0  0  0  0  0  0  0  0  0  0  0  0
    5.6240   50.1326  129.7693 O   0  0  0  0  0  0  0  0  0  0  0  0
    6.9468   48.3790  128.4286 H   0  0  0  0  0  0  0  0  0  0  0  0
    6.0966   52.4439  128.7383 H   0  0  0  0  0  0  0  0  0  0  0  0
  1  2  1  0  0  0
  2  3  1  0  0  0
  3  4  1  0  0  0
  3  5  1  0  0  0
  5  6  1  0  0  0
  6  7  1  0  0  0
  7 19  1  0  0  0
 19 20  1  0  0  0
 20 21  1  0  0  0
 21 22  1  0  0  0
 21 23  2  0  0  0
 21 25  1  0  0  0
 25 26  1  0  0  0
 26 27  1  0  0  0
 26 28  2  0  0  0
 26 30  1  0  0  0
 30 31  1  0  0  0
 31 32  1  0  0  0
 31 33  1  0  0  0
 31 34  2  0  0  0
  5 10  1  0  0  0
 10 11  1  0  0  0
 11 12  2  0  0  0
 12 13  1  0  0  0
 13 14  2  0  0  0
 13 15  1  0  0  0
 15 16  1  0  0  0
 16 17  2  0  0  0
  7  2  1  0  0  0
 16 10  1  0  0  0
  1  8  1  0  0  0
  4  9  1  0  0  0
 22 24  1  0  0  0
 27 29  1  0  0  0
 32 35  1  0  0  0
 33 36  1  0  0  0
 15 18  1  0  0  0
M  END
> <minimizedAffinity>
-6.64033

> <CNNscore>
0.3871416748

> <CNNaffinity>
5.6656870842

> <CNN_VS>
2.1934235096

> <CNNaffinity_variance>
2.6771070957

$$$$
[H]O[C@]1([H])[C@]([H])(n2c([H])c([H])c(=O)n([H])c2=S)O[C@]([H])(C([H])([H])OP(=O)(O[H])OP(=O)(O[H])OP(=O)(O[H])O[H])[C@]1([H])O[H]


 36 37  0  0  0  0  0  0  0  0999 V2000
    9.6224   43.9378  130.3474 O   0  0  0  0  0  0  0  0  0  0  0  0
    8.2950   44.3294  130.1908 C   0  0  0  0  0  0  0  0  0  0  0  0
    8.1961   45.6291  129.4201 C   0  0  0  0  0  0  0  0  0  0  0  0
    9.3483   46.4016  129.5520 O   0  0  0  0  0  0  0  0  0  0  0  0
    7.0287   46.2937  130.0938 C   0  0  0  0  0  0  0  0  0  0  0  0
    7.0776   45.8925  131.4218 O   0  0  0  0  0  0  0  0  0  0  0  0
    7.6078   44.6319  131.4712 C   0  0  0  0  0  0  0  0  0  0  0  0
    9.8888   43.4491  129.5251 H   0  0  0  0  0  0  0  0  0  0  0  0
    9.5125   46.5457  130.5094 H   0  0  0  0  0  0  0  0  0  0  0  0
    7.1190   47.7415  130.0779 N   0  0  0  0  0  0  0  0  0  0  0  0
    8.0222   48.4314  130.8002 C   0  0  0  0  0  0  0  0  0  0  0  0
    8.0984   49.8080  130.7770 C   0  0  0  0  0  0  0  0  0  0  0  0
    7.2221   50.5219  129.9881 C   0  0  0  0  0  0  0  0  0  0  0  0
    7.2574   51.7949  129.9368 O   0  0  0  0  0  0  0  0  0  0  0  0
    6.3259   49.8198  129.2726 N   0  0  0  0  0  0  0  0  0  0  0  0
    6.2809   48.4867  129.3195 C   0  0  0  0  0  0  0  0  0  0  0  0
    5.1776   47.6972  128.4339 S   0  0  0  0  0  0  0  0  0  0  0  0
    5.6698   50.3801  128.6803 H   0  0  0  0  0  0  0  0  0  0  0  0
    8.5705   44.4388  132.6242 C   0  0  0  0  0  0  0  0  0  0  0  0
    8.4302   45.5083  133.4883 O   0  0  0  0  0  0  0  0  0  0  0  0
    9.8586   45.9142  134.2664 P   0  0  0  0  0  0  0  0  0  0  0  0
   10.5897   47.2397  133.4904 O   0  0  0  0  0  0  0  0  0  0  0  0
    9.4910   46.3951  135.6632 O   0  0  0  0  0  0  0  0  0  0  0  0
   11.2411   46.9185  132.7934 H   0  0  0  0  0  0  0  0  0  0  0  0
   10.8739   44.5816  134.3247 O   0  0  0  0  0  0  0  0  0  0  0  0
   12.2288   44.7694  133.3226 P   0  0  0  0  0  0  0  0  0  0  0  0
   12.9222   43.2207  133.1257 O   0  0  0  0  0  0  0  0  0  0  0  0
   13.1694   45.7139  134.0096 O   0  0  0  0  0  0  0  0  0  0  0  0
   12.1973   42.6378  132.7890 H   0  0  0  0  0  0  0  0  0  0  0  0
   11.8006   45.3946  131.8235 O   0  0  0  0  0  0  0  0  0  0  0  0
   12.3105   44.3531  130.5867 P   0  0  0  0  0  0  0  0  0  0  0  0
   11.7973   44.9121  129.0774 O   0  0  0  0  0  0  0  0  0  0  0  0
   11.7062   42.7930  130.9025 O   0  0  0  0  0  0  0  0  0  0  0  0
   13.8169   44.2473  130.5565 O   0  0  0  0  0  0  0  0  0  0  0  0
   12.5117   45.4969  128.7242 H   0  0  0  0  0  0  0  0  0  0  0  0
   12.4076   42.2239  131.2969 H   0  0  0  0  0  0  0  0  0  0  0  0
  1  2  1  0  0  0
  2  3  1  0  0  0
  3  4  1  0  0  0
  3  5  1  0  0  0
  5  6  1  0  0  0
  6  7  1  0  0  0
  7 19  1  0  0  0
 19 20  1  0  0  0
 20 21  1  0  0  0
 21 22  1  0  0  0
 21 23  2  0  0  0
 21 25  1  0  0  0
 25 26  1  0  0  0
 26 27  1  0  0  0
 26 28  2  0  0  0
 26 30  1  0  0  0
 30 31  1  0  0  0
 31 32  1  0  0  0
 31 33  1  0  0  0
 31 34  2  0  0  0
  5 10  1  0  0  0
 10 11  1  0  0  0
 11 12  2  0  0  0
 12 13  1  0  0  0
 13 14  2  0  0  0
 13 15  1  0  0  0
 15 16  1  0  0  0
 16 17  2  0  0  0
  7  2  1  0  0  0
 16 10  1  0  0  0
  1  8  1  0  0  0
  4  9  1  0  0  0
 22 24  1  0  0  0
 27 29  1  0  0  0
 32 35  1  0  0  0
 33 36  1  0  0  0
 15 18  1  0  0  0
M  END
> <minimizedAffinity>
-5.12150

> <CNNscore>
0.3832734227

> <CNNaffinity>
5.9646620750

> <CNN_VS>
2.2860963345

> <CNNaffinity_variance>
7.4160432816

$$$$
[H]N=C(N([H])[H])N([H])C([H])([H])C([H])([H])C([H])([H])[C@@]([H])(C(=O)N([H])[C@]([H])(C(=O)N([H])[C@]([H])(C(=N[H])N([H])[H])C([H])([H])c1c([H])c([H])c([H])c([H])c1[H])C([H])([H])C(=N[H])N([H])[H])N([H])C(=O)[C@@]([H])(N([H])C(=O)[C@@]([H])(N([H])C(=O)OC([H])([H])c1c([H])c([H])c([H])c([H])c1[H])C([H])([H])C([H])([H])C([H])([H])N([H])C(=N[H])N([H])[H])C([H])([H])c1c([H])c([H])c([H])c([H])c1[H]


 82 84  0  0  0  0  0  0  0  0999 V2000
    9.1302   47.9512  129.6794 C   0  0  0  0  0  0  0  0  0  0  0  0
    8.0621   48.7336  129.0516 C   0  0  0  0  0  0  0  0  0  0  0  0
    7.2843   48.2314  128.1961 O   0  0  0  0  0  0  0  0  0  0  0  0
    7.8047   50.1269  129.3515 N   0  0  0  0  0  0  0  0  0  0  0  0
    8.4822   50.5993  130.0002 H   0  0  0  0  0  0  0  0  0  0  0  0
    6.7105   50.8447  128.7859 C   0  0  0  0  0  0  0  0  0  0  0  0
    7.0106   52.2805  128.4276 C   0  0  0  0  0  0  0  0  0  0  0  0
    7.1049   53.0987  129.3538 O   0  0  0  0  0  0  0  0  0  0  0  0
    7.1755   52.6372  127.0700 N   0  0  0  0  0  0  0  0  0  0  0  0
    7.0681   51.8908  126.3467 H   0  0  0  0  0  0  0  0  0  0  0  0
    7.4786   53.9909  126.6912 C   0  0  0  0  0  0  0  0  0  0  0  0
    6.3219   54.6903  126.1290 C   0  0  0  0  0  0  0  0  0  0  0  0
    6.4343   55.5987  125.0318 N   0  0  0  0  0  0  0  0  0  0  0  0
    5.1148   54.5234  126.6106 N   0  0  0  0  0  0  0  0  0  0  0  0
    5.6909   55.8397  124.3768 H   0  0  0  0  0  0  0  0  0  0  0  0
    7.4041   56.0299  124.9319 H   0  0  0  0  0  0  0  0  0  0  0  0
    4.9686   53.8707  127.4213 H   0  0  0  0  0  0  0  0  0  0  0  0
    8.7276   54.0514  125.8191 C   0  0  0  0  0  0  0  0  0  0  0  0
    8.4243   54.2654  124.4036 C   0  0  0  0  0  0  0  0  0  0  0  0
    7.5914   53.4583  123.6882 C   0  0  0  0  0  0  0  0  0  0  0  0
    7.3670   53.7103  122.3529 C   0  0  0  0  0  0  0  0  0  0  0  0
    7.9783   54.7827  121.7102 C   0  0  0  0  0  0  0  0  0  0  0  0
    8.8162   55.5973  122.4254 C   0  0  0  0  0  0  0  0  0  0  0  0
    9.0256   55.3258  123.7614 C   0  0  0  0  0  0  0  0  0  0  0  0
    5.4709   50.7181  129.6305 C   0  0  0  0  0  0  0  0  0  0  0  0
    4.5312   49.6909  129.1431 C   0  0  0  0  0  0  0  0  0  0  0  0
    4.8153   48.3243  129.4057 N   0  0  0  0  0  0  0  0  0  0  0  0
    3.4608   49.9641  128.4547 N   0  0  0  0  0  0  0  0  0  0  0  0
    4.8551   47.9270  130.3678 H   0  0  0  0  0  0  0  0  0  0  0  0
    5.0053   47.6373  128.6094 H   0  0  0  0  0  0  0  0  0  0  0  0
    3.2771   50.9597  128.2490 H   0  0  0  0  0  0  0  0  0  0  0  0
    7.7809   46.6481  131.4453 C   0  0  0  0  0  0  0  0  0  0  0  0
    6.6468   46.4937  130.9177 O   0  0  0  0  0  0  0  0  0  0  0  0
    8.8934   47.2801  130.9065 N   0  0  0  0  0  0  0  0  0  0  0  0
    9.7773   47.2690  131.5609 H   0  0  0  0  0  0  0  0  0  0  0  0
    7.8497   46.0353  132.8414 C   0  0  0  0  0  0  0  0  0  0  0  0
    9.6653   44.7341  134.0471 C   0  0  0  0  0  0  0  0  0  0  0  0
    9.3877   45.3775  135.1212 O   0  0  0  0  0  0  0  0  0  0  0  0
    8.8911   45.0486  132.9277 N   0  0  0  0  0  0  0  0  0  0  0  0
    9.0793   44.4754  132.0535 H   0  0  0  0  0  0  0  0  0  0  0  0
   10.7504   43.7562  134.1452 C   0  0  0  0  0  0  0  0  0  0  0  0
   10.7811   42.7346  133.1706 N   0  0  0  0  0  0  0  0  0  0  0  0
   11.6502   42.2886  132.2021 C   0  0  0  0  0  0  0  0  0  0  0  0
   12.7731   42.7314  131.9084 O   0  0  0  0  0  0  0  0  0  0  0  0
    9.8140   42.1454  133.2294 H   0  0  0  0  0  0  0  0  0  0  0  0
   11.2756   41.1772  131.3944 O   0  0  0  0  0  0  0  0  0  0  0  0
    9.9772   40.9658  130.9159 C   0  0  0  0  0  0  0  0  0  0  0  0
    9.5631   42.0922  130.0520 C   0  0  0  0  0  0  0  0  0  0  0  0
    8.5657   42.9886  130.4720 C   0  0  0  0  0  0  0  0  0  0  0  0
    8.1384   44.0266  129.6788 C   0  0  0  0  0  0  0  0  0  0  0  0
    8.7048   44.2158  128.4090 C   0  0  0  0  0  0  0  0  0  0  0  0
    9.6760   43.3381  128.0100 C   0  0  0  0  0  0  0  0  0  0  0  0
   10.1046   42.2997  128.7968 C   0  0  0  0  0  0  0  0  0  0  0  0
   12.0260   44.3260  134.6238 C   0  0  0  0  0  0  0  0  0  0  0  0
   12.5041   45.6672  134.2174 C   0  0  0  0  0  0  0  0  0  0  0  0
   13.7475   46.1638  134.8516 C   0  0  0  0  0  0  0  0  0  0  0  0
   14.1278   47.4614  135.1047 N   0  0  0  0  0  0  0  0  0  0  0  0
   14.3354   48.1073  134.2523 H   0  0  0  0  0  0  0  0  0  0  0  0
   15.4270   47.8369  137.1309 N   0  0  0  0  0  0  0  0  0  0  0  0
   14.3099   48.1589  136.3396 C   0  0  0  0  0  0  0  0  0  0  0  0
   13.4626   49.0360  136.6794 N   0  0  0  0  0  0  0  0  0  0  0  0
   15.3018   47.7437  138.1577 H   0  0  0  0  0  0  0  0  0  0  0  0
   16.3617   47.6938  136.7239 H   0  0  0  0  0  0  0  0  0  0  0  0
   13.6170   49.5503  137.6126 H   0  0  0  0  0  0  0  0  0  0  0  0
    7.9869   47.0345  133.9298 C   0  0  0  0  0  0  0  0  0  0  0  0
    8.8456   48.1555  133.4718 C   0  0  0  0  0  0  0  0  0  0  0  0
   10.2000   48.0706  133.7307 C   0  0  0  0  0  0  0  0  0  0  0  0
   10.9992   49.1213  133.3460 C   0  0  0  0  0  0  0  0  0  0  0  0
   10.4506   50.2339  132.7132 C   0  0  0  0  0  0  0  0  0  0  0  0
    9.0798   50.3075  132.4559 C   0  0  0  0  0  0  0  0  0  0  0  0
    8.3009   49.2380  132.8536 C   0  0  0  0  0  0  0  0  0  0  0  0
    9.9413   47.2054  128.6936 C   0  0  0  0  0  0  0  0  0  0  0  0
   11.2362   46.6381  129.2398 C   0  0  0  0  0  0  0  0  0  0  0  0
   11.0800   45.8011  130.4574 C   0  0  0  0  0  0  0  0  0  0  0  0
   12.2088   44.9414  130.6224 N   0  0  0  0  0  0  0  0  0  0  0  0
   12.4741   44.6048  131.5794 H   0  0  0  0  0  0  0  0  0  0  0  0
   13.0068   44.5062  129.5241 C   0  0  0  0  0  0  0  0  0  0  0  0
   14.4023   44.4105  129.6865 N   0  0  0  0  0  0  0  0  0  0  0  0
   12.4795   44.2001  128.4116 N   0  0  0  0  0  0  0  0  0  0  0  0
   14.9448   45.2673  129.9318 H   0  0  0  0  0  0  0  0  0  0  0  0
   14.9171   43.5231  129.5735 H   0  0  0  0  0  0  0  0  0  0  0  0
   13.0560   43.8824  127.6021 H   0  0  0  0  0  0  0  0  0  0  0  0
 59 60  1  0  0  0
 60 61  2  0  0  0
 60 57  1  0  0  0
 57 56  1  0  0  0
 56 55  1  0  0  0
 55 54  1  0  0  0
 54 41  1  0  0  0
 41 42  1  0  0  0
 42 43  1  0  0  0
 43 44  2  0  0  0
 43 46  1  0  0  0
 46 47  1  0  0  0
 47 48  1  0  0  0
 48 49  2  0  0  0
 49 50  1  0  0  0
 50 51  2  0  0  0
 51 52  1  0  0  0
 52 53  2  0  0  0
 41 37  1  0  0  0
 37 38  2  0  0  0
 37 39  1  0  0  0
 39 36  1  0  0  0
 36 65  1  0  0  0
 65 66  1  0  0  0
 66 67  2  0  0  0
 67 68  1  0  0  0
 68 69  2  0  0  0
 69 70  1  0  0  0
 70 71  2  0  0  0
 36 32  1  0  0  0
 32 33  2  0  0  0
 32 34  1  0  0  0
 34  1  1  0  0  0
  1 72  1  0  0  0
 72 73  1  0  0  0
 73 74  1  0  0  0
 74 75  1  0  0  0
 75 77  1  0  0  0
 77 78  1  0  0  0
 77 79  2  0  0  0
  1  2  1  0  0  0
  2  3  2  0  0  0
  2  4  1  0  0  0
  4  6  1  0  0  0
  6 25  1  0  0  0
 25 26  1  0  0  0
 26 27  1  0  0  0
 26 28  2  0  0  0
  6  7  1  0  0  0
  7  8  2  0  0  0
  7  9  1  0  0  0
  9 11  1  0  0  0
 11 18  1  0  0  0
 18 19  1  0  0  0
 19 20  2  0  0  0
 20 21  1  0  0  0
 21 22  2  0  0  0
 22 23  1  0  0  0
 23 24  2  0  0  0
 11 12  1  0  0  0
 12 13  1  0  0  0
 12 14  2  0  0  0
 53 48  1  0  0  0
 71 66  1  0  0  0
 24 19  1  0  0  0
 59 62  1  0  0  0
 59 63  1  0  0  0
 61 64  1  0  0  0
 57 58  1  0  0  0
 42 45  1  0  0  0
 39 40  1  0  0  0
 34 35  1  0  0  0
 75 76  1  0  0  0
 78 80  1  0  0  0
 78 81  1  0  0  0
 79 82  1  0  0  0
  4  5  1  0  0  0
 27 29  1  0  0  0
 27 30  1  0  0  0
 28 31  1  0  0  0
  9 10  1  0  0  0
 13 15  1  0  0  0
 13 16  1  0  0  0
 14 17  1  0  0  0
M  END
> <minimizedAffinity>
6.70816

> <CNNscore>
0.5621464252

> <CNNaffinity>
8.7800607681

> <CNN_VS>
4.9356799126

> <CNNaffinity_variance>
0.4371760786

$$$$
[H]N=C(N([H])[H])N([H])C([H])([H])C([H])([H])C([H])([H])[C@@]([H])(C(=O)N([H])[C@]([H])(C(=O)N([H])[C@]([H])(C(=N[H])N([H])[H])C([H])([H])c1c([H])c([H])c([H])c([H])c1[H])C([H])([H])C(=N[H])N([H])[H])N([H])C(=O)[C@@]([H])(N([H])C(=O)[C@@]([H])(N([H])C(=O)OC([H])([H])c1c([H])c([H])c([H])c([H])c1[H])C([H])([H])C([H])([H])C([H])([H])N([H])C(=N[H])N([H])[H])C([H])([H])c1c([H])c([H])c([H])c([H])c1[H]


 82 84  0  0  0  0  0  0  0  0999 V2000
    9.6921   49.2389  131.8517 C   0  0  0  0  0  0  0  0  0  0  0  0
    9.8310   47.8271  132.2189 C   0  0  0  0  0  0  0  0  0  0  0  0
    8.9308   46.9819  131.9651 O   0  0  0  0  0  0  0  0  0  0  0  0
   10.9926   47.2827  132.8910 N   0  0  0  0  0  0  0  0  0  0  0  0
   11.7273   47.9716  133.1886 H   0  0  0  0  0  0  0  0  0  0  0  0
   11.1382   45.8916  133.1674 C   0  0  0  0  0  0  0  0  0  0  0  0
   11.6323   45.0622  132.0065 C   0  0  0  0  0  0  0  0  0  0  0  0
   12.6734   44.4088  132.1660 O   0  0  0  0  0  0  0  0  0  0  0  0
   10.9008   45.0553  130.7972 N   0  0  0  0  0  0  0  0  0  0  0  0
   10.0390   45.6434  130.7380 H   0  0  0  0  0  0  0  0  0  0  0  0
   11.3308   44.2648  129.6756 C   0  0  0  0  0  0  0  0  0  0  0  0
   10.9760   44.8709  128.3911 C   0  0  0  0  0  0  0  0  0  0  0  0
   11.1347   46.2671  128.1324 N   0  0  0  0  0  0  0  0  0  0  0  0
   10.4844   44.1601  127.4062 N   0  0  0  0  0  0  0  0  0  0  0  0
   11.2527   46.6953  127.2145 H   0  0  0  0  0  0  0  0  0  0  0  0
   11.1274   46.8682  129.0128 H   0  0  0  0  0  0  0  0  0  0  0  0
   10.3401   43.1273  127.5373 H   0  0  0  0  0  0  0  0  0  0  0  0
   10.8876   42.8136  129.8233 C   0  0  0  0  0  0  0  0  0  0  0  0
   10.0232   42.5972  130.9842 C   0  0  0  0  0  0  0  0  0  0  0  0
   10.4900   42.1833  132.1957 C   0  0  0  0  0  0  0  0  0  0  0  0
    9.6140   41.9823  133.2393 C   0  0  0  0  0  0  0  0  0  0  0  0
    8.2476   42.1949  133.0831 C   0  0  0  0  0  0  0  0  0  0  0  0
    7.7736   42.6115  131.8671 C   0  0  0  0  0  0  0  0  0  0  0  0
    8.6694   42.8065  130.8365 C   0  0  0  0  0  0  0  0  0  0  0  0
    9.8911   45.3174  133.7846 C   0  0  0  0  0  0  0  0  0  0  0  0
    9.4601   46.0262  135.0042 C   0  0  0  0  0  0  0  0  0  0  0  0
    8.1438   46.5569  135.0578 N   0  0  0  0  0  0  0  0  0  0  0  0
   10.2326   46.2210  136.0336 N   0  0  0  0  0  0  0  0  0  0  0  0
    7.2895   45.9620  135.0211 H   0  0  0  0  0  0  0  0  0  0  0  0
    7.9760   47.6093  135.1373 H   0  0  0  0  0  0  0  0  0  0  0  0
   11.1955   45.8517  135.9738 H   0  0  0  0  0  0  0  0  0  0  0  0
    8.1872   50.3065  130.0538 C   0  0  0  0  0  0  0  0  0  0  0  0
    8.9752   50.5707  129.1062 O   0  0  0  0  0  0  0  0  0  0  0  0
    8.4862   49.7073  131.2699 N   0  0  0  0  0  0  0  0  0  0  0  0
    7.6161   49.5679  131.9280 H   0  0  0  0  0  0  0  0  0  0  0  0
    6.7546   50.7289  129.7399 C   0  0  0  0  0  0  0  0  0  0  0  0
    7.0181   52.4166  127.8624 C   0  0  0  0  0  0  0  0  0  0  0  0
    7.3404   51.4595  127.0719 O   0  0  0  0  0  0  0  0  0  0  0  0
    6.7115   52.0496  129.1749 N   0  0  0  0  0  0  0  0  0  0  0  0
    6.3871   52.8324  129.8152 H   0  0  0  0  0  0  0  0  0  0  0  0
    7.0109   53.7589  127.2780 C   0  0  0  0  0  0  0  0  0  0  0  0
    7.6871   53.9257  126.0495 N   0  0  0  0  0  0  0  0  0  0  0  0
    8.6956   54.7173  125.5512 C   0  0  0  0  0  0  0  0  0  0  0  0
    9.3497   55.5958  126.1375 O   0  0  0  0  0  0  0  0  0  0  0  0
    7.2561   53.1977  125.2943 H   0  0  0  0  0  0  0  0  0  0  0  0
    9.0914   54.5608  124.1922 O   0  0  0  0  0  0  0  0  0  0  0  0
    8.5077   53.6411  123.3130 C   0  0  0  0  0  0  0  0  0  0  0  0
    7.1022   54.0143  123.0447 C   0  0  0  0  0  0  0  0  0  0  0  0
    6.3872   53.4089  121.9974 C   0  0  0  0  0  0  0  0  0  0  0  0
    5.0902   53.7566  121.7045 C   0  0  0  0  0  0  0  0  0  0  0  0
    4.4414   54.7417  122.4645 C   0  0  0  0  0  0  0  0  0  0  0  0
    5.1460   55.3243  123.4829 C   0  0  0  0  0  0  0  0  0  0  0  0
    6.4410   54.9822  123.7780 C   0  0  0  0  0  0  0  0  0  0  0  0
    5.7578   54.5046  127.5111 C   0  0  0  0  0  0  0  0  0  0  0  0
    5.0400   55.2181  126.4303 C   0  0  0  0  0  0  0  0  0  0  0  0
    3.6139   55.5442  126.6646 C   0  0  0  0  0  0  0  0  0  0  0  0
    2.4938   54.8577  126.2564 N   0  0  0  0  0  0  0  0  0  0  0  0
    1.5442   55.3915  126.2465 H   0  0  0  0  0  0  0  0  0  0  0  0
    1.9931   52.5302  126.7723 N   0  0  0  0  0  0  0  0  0  0  0  0
    2.3329   53.5061  125.8184 C   0  0  0  0  0  0  0  0  0  0  0  0
    2.5037   53.2335  124.5939 N   0  0  0  0  0  0  0  0  0  0  0  0
    2.4744   51.6103  126.7393 H   0  0  0  0  0  0  0  0  0  0  0  0
    1.2826   52.6995  127.4978 H   0  0  0  0  0  0  0  0  0  0  0  0
    2.3780   52.2103  124.2836 H   0  0  0  0  0  0  0  0  0  0  0  0
    6.0206   49.7691  128.8785 C   0  0  0  0  0  0  0  0  0  0  0  0
    6.4826   48.3878  129.1654 C   0  0  0  0  0  0  0  0  0  0  0  0
    5.7223   47.6263  130.0319 C   0  0  0  0  0  0  0  0  0  0  0  0
    6.1619   46.3593  130.3354 C   0  0  0  0  0  0  0  0  0  0  0  0
    7.3399   45.8661  129.7800 C   0  0  0  0  0  0  0  0  0  0  0  0
    8.0993   46.6453  128.9043 C   0  0  0  0  0  0  0  0  0  0  0  0
    7.6342   47.9142  128.6174 C   0  0  0  0  0  0  0  0  0  0  0  0
   10.3152   50.1456  132.8393 C   0  0  0  0  0  0  0  0  0  0  0  0
   10.4395   49.5702  134.2359 C   0  0  0  0  0  0  0  0  0  0  0  0
   11.6858   49.9473  134.9516 C   0  0  0  0  0  0  0  0  0  0  0  0
   12.4656   48.7870  135.2448 N   0  0  0  0  0  0  0  0  0  0  0  0
   12.3084   47.9015  134.7056 H   0  0  0  0  0  0  0  0  0  0  0  0
   13.4722   48.7760  136.2544 C   0  0  0  0  0  0  0  0  0  0  0  0
   14.5157   47.8341  136.1713 N   0  0  0  0  0  0  0  0  0  0  0  0
   13.4441   49.6019  137.2168 N   0  0  0  0  0  0  0  0  0  0  0  0
   14.2837   46.8170  136.1843 H   0  0  0  0  0  0  0  0  0  0  0  0
   15.5083   48.1069  136.0970 H   0  0  0  0  0  0  0  0  0  0  0  0
   14.1755   49.5999  137.9609 H   0  0  0  0  0  0  0  0  0  0  0  0
 59 60  1  0  0  0
 60 61  2  0  0  0
 60 57  1  0  0  0
 57 56  1  0  0  0
 56 55  1  0  0  0
 55 54  1  0  0  0
 54 41  1  0  0  0
 41 42  1  0  0  0
 42 43  1  0  0  0
 43 44  2  0  0  0
 43 46  1  0  0  0
 46 47  1  0  0  0
 47 48  1  0  0  0
 48 49  2  0  0  0
 49 50  1  0  0  0
 50 51  2  0  0  0
 51 52  1  0  0  0
 52 53  2  0  0  0
 41 37  1  0  0  0
 37 38  2  0  0  0
 37 39  1  0  0  0
 39 36  1  0  0  0
 36 65  1  0  0  0
 65 66  1  0  0  0
 66 67  2  0  0  0
 67 68  1  0  0  0
 68 69  2  0  0  0
 69 70  1  0  0  0
 70 71  2  0  0  0
 36 32  1  0  0  0
 32 33  2  0  0  0
 32 34  1  0  0  0
 34  1  1  0  0  0
  1 72  1  0  0  0
 72 73  1  0  0  0
 73 74  1  0  0  0
 74 75  1  0  0  0
 75 77  1  0  0  0
 77 78  1  0  0  0
 77 79  2  0  0  0
  1  2  1  0  0  0
  2  3  2  0  0  0
  2  4  1  0  0  0
  4  6  1  0  0  0
  6 25  1  0  0  0
 25 26  1  0  0  0
 26 27  1  0  0  0
 26 28  2  0  0  0
  6  7  1  0  0  0
  7  8  2  0  0  0
  7  9  1  0  0  0
  9 11  1  0  0  0
 11 18  1  0  0  0
 18 19  1  0  0  0
 19 20  2  0  0  0
 20 21  1  0  0  0
 21 22  2  0  0  0
 22 23  1  0  0  0
 23 24  2  0  0  0
 11 12  1  0  0  0
 12 13  1  0  0  0
 12 14  2  0  0  0
 53 48  1  0  0  0
 71 66  1  0  0  0
 24 19  1  0  0  0
 59 62  1  0  0  0
 59 63  1  0  0  0
 61 64  1  0  0  0
 57 58  1  0  0  0
 42 45  1  0  0  0
 39 40  1  0  0  0
 34 35  1  0  0  0
 75 76  1  0  0  0
 78 80  1  0  0  0
 78 81  1  0  0  0
 79 82  1  0  0  0
  4  5  1  0  0  0
 27 29  1  0  0  0
 27 30  1  0  0  0
 28 31  1  0  0  0
  9 10  1  0  0  0
 13 15  1  0  0  0
 13 16  1  0  0  0
 14 17  1  0  0  0
M  END
> <minimizedAffinity>
8.31096

> <CNNscore>
0.5456183553

> <CNNaffinity>
8.4448862076

> <CNN_VS>
4.6076850891

> <CNNaffinity_variance>
0.3729768991

$$$$
[H]N=C(N([H])[H])N([H])C([H])([H])C([H])([H])C([H])([H])[C@@]([H])(C(=O)N([H])[C@]([H])(C(=O)N([H])[C@]([H])(C(=N[H])N([H])[H])C([H])([H])c1c([H])c([H])c([H])c([H])c1[H])C([H])([H])C(=N[H])N([H])[H])N([H])C(=O)[C@@]([H])(N([H])C(=O)[C@@]([H])(N([H])C(=O)OC([H])([H])c1c([H])c([H])c([H])c([H])c1[H])C([H])([H])C([H])([H])C([H])([H])N([H])C(=N[H])N([H])[H])C([H])([H])c1c([H])c([H])c([H])c([H])c1[H]


 82 84  0  0  0  0  0  0  0  0999 V2000
    8.5277   44.8067  128.4343 C   0  0  0  0  0  0  0  0  0  0  0  0
    8.3832   43.9165  129.5892 C   0  0  0  0  0  0  0  0  0  0  0  0
    7.9775   42.7292  129.4675 O   0  0  0  0  0  0  0  0  0  0  0  0
    8.6894   44.3092  130.9491 N   0  0  0  0  0  0  0  0  0  0  0  0
    8.9541   45.3146  131.0980 H   0  0  0  0  0  0  0  0  0  0  0  0
    8.6157   43.4012  132.0458 C   0  0  0  0  0  0  0  0  0  0  0  0
    9.5965   43.6724  133.1613 C   0  0  0  0  0  0  0  0  0  0  0  0
    9.5828   42.9111  134.1393 O   0  0  0  0  0  0  0  0  0  0  0  0
   10.4861   44.7652  133.0531 N   0  0  0  0  0  0  0  0  0  0  0  0
   10.4265   45.3681  132.2016 H   0  0  0  0  0  0  0  0  0  0  0  0
   11.4454   45.0450  134.0872 C   0  0  0  0  0  0  0  0  0  0  0  0
   12.6159   44.1682  134.0210 C   0  0  0  0  0  0  0  0  0  0  0  0
   13.7958   44.4054  134.7911 N   0  0  0  0  0  0  0  0  0  0  0  0
   12.6454   43.1158  133.2409 N   0  0  0  0  0  0  0  0  0  0  0  0
   14.4775   43.7012  135.0724 H   0  0  0  0  0  0  0  0  0  0  0  0
   13.9229   45.4251  135.0749 H   0  0  0  0  0  0  0  0  0  0  0  0
   11.8085   42.8912  132.6460 H   0  0  0  0  0  0  0  0  0  0  0  0
   10.7789   45.0920  135.4575 C   0  0  0  0  0  0  0  0  0  0  0  0
    9.7330   46.1115  135.5477 C   0  0  0  0  0  0  0  0  0  0  0  0
    9.6423   46.9989  136.5779 C   0  0  0  0  0  0  0  0  0  0  0  0
    8.6186   47.9199  136.6057 C   0  0  0  0  0  0  0  0  0  0  0  0
    7.6640   47.9656  135.5942 C   0  0  0  0  0  0  0  0  0  0  0  0
    7.7512   47.0757  134.5561 C   0  0  0  0  0  0  0  0  0  0  0  0
    8.7850   46.1627  134.5492 C   0  0  0  0  0  0  0  0  0  0  0  0
    8.6653   41.9699  131.5824 C   0  0  0  0  0  0  0  0  0  0  0  0
    9.9657   41.5858  131.0019 C   0  0  0  0  0  0  0  0  0  0  0  0
    9.9836   40.7148  129.8803 N   0  0  0  0  0  0  0  0  0  0  0  0
   11.1108   41.9792  131.4798 N   0  0  0  0  0  0  0  0  0  0  0  0
    9.5711   40.9678  128.9578 H   0  0  0  0  0  0  0  0  0  0  0  0
   10.4284   39.7449  129.9418 H   0  0  0  0  0  0  0  0  0  0  0  0
   11.0863   42.5930  132.3104 H   0  0  0  0  0  0  0  0  0  0  0  0
    8.8273   47.1437  129.4763 C   0  0  0  0  0  0  0  0  0  0  0  0
    7.9870   47.1751  130.4151 O   0  0  0  0  0  0  0  0  0  0  0  0
    9.0869   46.0999  128.5984 N   0  0  0  0  0  0  0  0  0  0  0  0
    9.8854   46.3116  127.8723 H   0  0  0  0  0  0  0  0  0  0  0  0
    9.6085   48.4501  129.3649 C   0  0  0  0  0  0  0  0  0  0  0  0
    7.8321   50.1981  128.8829 C   0  0  0  0  0  0  0  0  0  0  0  0
    7.6541   49.6721  127.7269 O   0  0  0  0  0  0  0  0  0  0  0  0
    8.7852   49.5806  129.6963 N   0  0  0  0  0  0  0  0  0  0  0  0
    8.8918   49.9780  130.6755 H   0  0  0  0  0  0  0  0  0  0  0  0
    7.0081   51.3683  129.1911 C   0  0  0  0  0  0  0  0  0  0  0  0
    6.6806   52.2218  128.1146 N   0  0  0  0  0  0  0  0  0  0  0  0
    7.0347   53.4769  127.6771 C   0  0  0  0  0  0  0  0  0  0  0  0
    7.8392   54.2745  128.1870 O   0  0  0  0  0  0  0  0  0  0  0  0
    5.9175   51.7019  127.4563 H   0  0  0  0  0  0  0  0  0  0  0  0
    6.4384   53.9903  126.4902 O   0  0  0  0  0  0  0  0  0  0  0  0
    6.7413   55.2444  125.9471 C   0  0  0  0  0  0  0  0  0  0  0  0
    7.1491   55.1020  124.5329 C   0  0  0  0  0  0  0  0  0  0  0  0
    6.3297   54.4225  123.6155 C   0  0  0  0  0  0  0  0  0  0  0  0
    6.6957   54.2476  122.3023 C   0  0  0  0  0  0  0  0  0  0  0  0
    7.9194   54.7582  121.8432 C   0  0  0  0  0  0  0  0  0  0  0  0
    8.7094   55.4193  122.7442 C   0  0  0  0  0  0  0  0  0  0  0  0
    8.3497   55.5948  124.0560 C   0  0  0  0  0  0  0  0  0  0  0  0
    6.0019   51.1289  130.2451 C   0  0  0  0  0  0  0  0  0  0  0  0
    4.9766   50.0654  130.1438 C   0  0  0  0  0  0  0  0  0  0  0  0
    4.9778   49.2383  128.9147 C   0  0  0  0  0  0  0  0  0  0  0  0
    5.2816   47.9040  128.7732 N   0  0  0  0  0  0  0  0  0  0  0  0
    5.8005   47.5927  127.8673 H   0  0  0  0  0  0  0  0  0  0  0  0
    3.7042   46.3674  129.8148 N   0  0  0  0  0  0  0  0  0  0  0  0
    5.0332   46.7914  129.6363 C   0  0  0  0  0  0  0  0  0  0  0  0
    6.0118   46.2300  130.2106 N   0  0  0  0  0  0  0  0  0  0  0  0
    3.3827   46.1201  130.7709 H   0  0  0  0  0  0  0  0  0  0  0  0
    3.0443   46.2929  129.0281 H   0  0  0  0  0  0  0  0  0  0  0  0
    5.8046   45.3940  130.8565 H   0  0  0  0  0  0  0  0  0  0  0  0
   10.8632   48.4689  130.1568 C   0  0  0  0  0  0  0  0  0  0  0  0
   10.5691   48.9009  131.5463 C   0  0  0  0  0  0  0  0  0  0  0  0
    9.7987   50.0354  131.7137 C   0  0  0  0  0  0  0  0  0  0  0  0
    9.5530   50.4670  132.9958 C   0  0  0  0  0  0  0  0  0  0  0  0
   10.0688   49.7736  134.0879 C   0  0  0  0  0  0  0  0  0  0  0  0
   10.8455   48.6272  133.9057 C   0  0  0  0  0  0  0  0  0  0  0  0
   11.0767   48.2166  132.6069 C   0  0  0  0  0  0  0  0  0  0  0  0
    8.9411   44.0863  127.2113 C   0  0  0  0  0  0  0  0  0  0  0  0
   10.4367   44.0608  126.9674 C   0  0  0  0  0  0  0  0  0  0  0  0
   11.2377   43.5130  128.0926 C   0  0  0  0  0  0  0  0  0  0  0  0
   12.1429   44.4998  128.5900 N   0  0  0  0  0  0  0  0  0  0  0  0
   12.6130   45.1605  127.9252 H   0  0  0  0  0  0  0  0  0  0  0  0
   12.4411   44.6351  129.9776 C   0  0  0  0  0  0  0  0  0  0  0  0
   13.6371   44.0856  130.4781 N   0  0  0  0  0  0  0  0  0  0  0  0
   11.6517   45.2452  130.7611 N   0  0  0  0  0  0  0  0  0  0  0  0
   13.7987   43.0584  130.3928 H   0  0  0  0  0  0  0  0  0  0  0  0
   14.3678   44.6583  130.9291 H   0  0  0  0  0  0  0  0  0  0  0  0
   11.8610   45.3474  131.7780 H   0  0  0  0  0  0  0  0  0  0  0  0
 59 60  1  0  0  0
 60 61  2  0  0  0
 60 57  1  0  0  0
 57 56  1  0  0  0
 56 55  1  0  0  0
 55 54  1  0  0  0
 54 41  1  0  0  0
 41 42  1  0  0  0
 42 43  1  0  0  0
 43 44  2  0  0  0
 43 46  1  0  0  0
 46 47  1  0  0  0
 47 48  1  0  0  0
 48 49  2  0  0  0
 49 50  1  0  0  0
 50 51  2  0  0  0
 51 52  1  0  0  0
 52 53  2  0  0  0
 41 37  1  0  0  0
 37 38  2  0  0  0
 37 39  1  0  0  0
 39 36  1  0  0  0
 36 65  1  0  0  0
 65 66  1  0  0  0
 66 67  2  0  0  0
 67 68  1  0  0  0
 68 69  2  0  0  0
 69 70  1  0  0  0
 70 71  2  0  0  0
 36 32  1  0  0  0
 32 33  2  0  0  0
 32 34  1  0  0  0
 34  1  1  0  0  0
  1 72  1  0  0  0
 72 73  1  0  0  0
 73 74  1  0  0  0
 74 75  1  0  0  0
 75 77  1  0  0  0
 77 78  1  0  0  0
 77 79  2  0  0  0
  1  2  1  0  0  0
  2  3  2  0  0  0
  2  4  1  0  0  0
  4  6  1  0  0  0
  6 25  1  0  0  0
 25 26  1  0  0  0
 26 27  1  0  0  0
 26 28  2  0  0  0
  6  7  1  0  0  0
  7  8  2  0  0  0
  7  9  1  0  0  0
  9 11  1  0  0  0
 11 18  1  0  0  0
 18 19  1  0  0  0
 19 20  2  0  0  0
 20 21  1  0  0  0
 21 22  2  0  0  0
 22 23  1  0  0  0
 23 24  2  0  0  0
 11 12  1  0  0  0
 12 13  1  0  0  0
 12 14  2  0  0  0
 53 48  1  0  0  0
 71 66  1  0  0  0
 24 19  1  0  0  0
 59 62  1  0  0  0
 59 63  1  0  0  0
 61 64  1  0  0  0
 57 58  1  0  0  0
 42 45  1  0  0  0
 39 40  1  0  0  0
 34 35  1  0  0  0
 75 76  1  0  0  0
 78 80  1  0  0  0
 78 81  1  0  0  0
 79 82  1  0  0  0
  4  5  1  0  0  0
 27 29  1  0  0  0
 27 30  1  0  0  0
 28 31  1  0  0  0
  9 10  1  0  0  0
 13 15  1  0  0  0
 13 16  1  0  0  0
 14 17  1  0  0  0
M  END
> <minimizedAffinity>
7.48687

> <CNNscore>
0.5434573293

> <CNNaffinity>
8.6893482208

> <CNN_VS>
4.7222900391

> <CNNaffinity_variance>
0.6172403097

$$$$
[H]N=C(N([H])[H])N([H])C([H])([H])C([H])([H])C([H])([H])[C@@]([H])(C(=O)N([H])[C@]([H])(C(=O)N([H])[C@]([H])(C(=N[H])N([H])[H])C([H])([H])c1c([H])c([H])c([H])c([H])c1[H])C([H])([H])C(=N[H])N([H])[H])N([H])C(=O)[C@@]([H])(N([H])C(=O)[C@@]([H])(N([H])C(=O)OC([H])([H])c1c([H])c([H])c([H])c([H])c1[H])C([H])([H])C([H])([H])C([H])([H])N([H])C(=N[H])N([H])[H])C([H])([H])c1c([H])c([H])c([H])c([H])c1[H]


 82 84  0  0  0  0  0  0  0  0999 V2000
    8.2711   47.3347  129.4627 C   0  0  0  0  0  0  0  0  0  0  0  0
    7.3233   48.3658  129.0320 C   0  0  0  0  0  0  0  0  0  0  0  0
    6.0992   48.1159  128.8636 O   0  0  0  0  0  0  0  0  0  0  0  0
    7.6968   49.7399  128.7678 N   0  0  0  0  0  0  0  0  0  0  0  0
    8.7211   49.9654  128.8210 H   0  0  0  0  0  0  0  0  0  0  0  0
    6.7429   50.7428  128.4258 C   0  0  0  0  0  0  0  0  0  0  0  0
    7.1787   51.6859  127.3301 C   0  0  0  0  0  0  0  0  0  0  0  0
    7.8671   51.2222  126.4097 O   0  0  0  0  0  0  0  0  0  0  0  0
    6.7897   53.0435  127.3873 N   0  0  0  0  0  0  0  0  0  0  0  0
    6.2191   53.3597  128.2036 H   0  0  0  0  0  0  0  0  0  0  0  0
    7.1713   53.9677  126.3540 C   0  0  0  0  0  0  0  0  0  0  0  0
    8.2165   54.8966  126.7877 C   0  0  0  0  0  0  0  0  0  0  0  0
    9.0500   55.5984  125.8634 N   0  0  0  0  0  0  0  0  0  0  0  0
    8.4483   55.1295  128.0561 N   0  0  0  0  0  0  0  0  0  0  0  0
    9.5279   56.4815  126.0410 H   0  0  0  0  0  0  0  0  0  0  0  0
    9.1415   55.1144  124.9180 H   0  0  0  0  0  0  0  0  0  0  0  0
    7.8705   54.6393  128.7846 H   0  0  0  0  0  0  0  0  0  0  0  0
    5.9497   54.6454  125.7437 C   0  0  0  0  0  0  0  0  0  0  0  0
    5.8076   54.3811  124.3113 C   0  0  0  0  0  0  0  0  0  0  0  0
    6.8692   54.2583  123.4659 C   0  0  0  0  0  0  0  0  0  0  0  0
    6.6585   54.0278  122.1245 C   0  0  0  0  0  0  0  0  0  0  0  0
    5.3716   53.9160  121.6068 C   0  0  0  0  0  0  0  0  0  0  0  0
    4.3010   54.0383  122.4530 C   0  0  0  0  0  0  0  0  0  0  0  0
    4.5361   54.2686  123.7925 C   0  0  0  0  0  0  0  0  0  0  0  0
    6.2524   51.4774  129.6446 C   0  0  0  0  0  0  0  0  0  0  0  0
    5.0759   50.8490  130.2746 C   0  0  0  0  0  0  0  0  0  0  0  0
    4.7959   51.1341  131.6374 N   0  0  0  0  0  0  0  0  0  0  0  0
    4.2877   50.0175  129.6568 N   0  0  0  0  0  0  0  0  0  0  0  0
    4.5536   52.0875  131.9802 H   0  0  0  0  0  0  0  0  0  0  0  0
    4.8257   50.3655  132.3794 H   0  0  0  0  0  0  0  0  0  0  0  0
    4.5151   49.7990  128.6730 H   0  0  0  0  0  0  0  0  0  0  0  0
    7.5925   46.5328  131.8151 C   0  0  0  0  0  0  0  0  0  0  0  0
    6.4024   46.1412  131.6783 O   0  0  0  0  0  0  0  0  0  0  0  0
    8.4366   47.0524  130.8430 N   0  0  0  0  0  0  0  0  0  0  0  0
    9.4417   47.3065  131.2100 H   0  0  0  0  0  0  0  0  0  0  0  0
    8.0825   46.3799  133.2524 C   0  0  0  0  0  0  0  0  0  0  0  0
    9.9301   45.1191  134.4525 C   0  0  0  0  0  0  0  0  0  0  0  0
    9.6995   45.8176  135.5030 O   0  0  0  0  0  0  0  0  0  0  0  0
    9.1170   45.3869  133.3485 N   0  0  0  0  0  0  0  0  0  0  0  0
    9.2665   44.7694  132.4974 H   0  0  0  0  0  0  0  0  0  0  0  0
   11.0088   44.1349  134.5582 C   0  0  0  0  0  0  0  0  0  0  0  0
   11.0990   43.1713  133.5298 N   0  0  0  0  0  0  0  0  0  0  0  0
   12.0842   42.6286  132.7379 C   0  0  0  0  0  0  0  0  0  0  0  0
   13.3000   42.8838  132.7334 O   0  0  0  0  0  0  0  0  0  0  0  0
   10.0632   42.7563  133.3271 H   0  0  0  0  0  0  0  0  0  0  0  0
   11.7327   41.6388  131.7763 O   0  0  0  0  0  0  0  0  0  0  0  0
   11.0340   41.9151  130.5953 C   0  0  0  0  0  0  0  0  0  0  0  0
   11.3213   43.2938  130.1442 C   0  0  0  0  0  0  0  0  0  0  0  0
   11.2832   44.3671  131.0505 C   0  0  0  0  0  0  0  0  0  0  0  0
   11.5156   45.6628  130.6552 C   0  0  0  0  0  0  0  0  0  0  0  0
   11.8044   45.9430  129.3109 C   0  0  0  0  0  0  0  0  0  0  0  0
   11.8402   44.8906  128.4368 C   0  0  0  0  0  0  0  0  0  0  0  0
   11.6072   43.5962  128.8257 C   0  0  0  0  0  0  0  0  0  0  0  0
   12.2528   44.6735  135.1441 C   0  0  0  0  0  0  0  0  0  0  0  0
   13.1579   45.5804  134.4019 C   0  0  0  0  0  0  0  0  0  0  0  0
   13.2240   46.9899  134.8535 C   0  0  0  0  0  0  0  0  0  0  0  0
   14.2861   47.6711  135.4017 N   0  0  0  0  0  0  0  0  0  0  0  0
   15.2064   47.7320  134.8220 H   0  0  0  0  0  0  0  0  0  0  0  0
   15.5007   48.0193  137.4844 N   0  0  0  0  0  0  0  0  0  0  0  0
   14.4160   48.3508  136.6530 C   0  0  0  0  0  0  0  0  0  0  0  0
   13.5533   49.2212  136.9707 N   0  0  0  0  0  0  0  0  0  0  0  0
   15.3341   47.9109  138.5038 H   0  0  0  0  0  0  0  0  0  0  0  0
   16.4516   47.8840  137.1137 H   0  0  0  0  0  0  0  0  0  0  0  0
   13.6683   49.7221  137.9167 H   0  0  0  0  0  0  0  0  0  0  0  0
    8.5223   47.6528  133.8755 C   0  0  0  0  0  0  0  0  0  0  0  0
    9.1916   48.5009  132.8574 C   0  0  0  0  0  0  0  0  0  0  0  0
   10.4806   48.1642  132.4919 C   0  0  0  0  0  0  0  0  0  0  0  0
   11.1243   48.9659  131.5789 C   0  0  0  0  0  0  0  0  0  0  0  0
   10.4871   50.0819  131.0426 C   0  0  0  0  0  0  0  0  0  0  0  0
    9.1831   50.4113  131.4192 C   0  0  0  0  0  0  0  0  0  0  0  0
    8.5607   49.5888  132.3384 C   0  0  0  0  0  0  0  0  0  0  0  0
    8.2731   46.1572  128.5688 C   0  0  0  0  0  0  0  0  0  0  0  0
    8.0006   44.8369  129.2613 C   0  0  0  0  0  0  0  0  0  0  0  0
    8.5688   43.6488  128.5736 C   0  0  0  0  0  0  0  0  0  0  0  0
    8.8367   42.6067  129.5132 N   0  0  0  0  0  0  0  0  0  0  0  0
    9.6577   41.9707  129.3686 H   0  0  0  0  0  0  0  0  0  0  0  0
    8.0260   42.3876  130.6654 C   0  0  0  0  0  0  0  0  0  0  0  0
    8.1923   43.2205  131.7886 N   0  0  0  0  0  0  0  0  0  0  0  0
    7.1583   41.4625  130.6899 N   0  0  0  0  0  0  0  0  0  0  0  0
    9.1199   43.2508  132.2653 H   0  0  0  0  0  0  0  0  0  0  0  0
    7.4315   43.8080  132.1644 H   0  0  0  0  0  0  0  0  0  0  0  0
    6.5621   41.2940  131.5293 H   0  0  0  0  0  0  0  0  0  0  0  0
 59 60  1  0  0  0
 60 61  2  0  0  0
 60 57  1  0  0  0
 57 56  1  0  0  0
 56 55  1  0  0  0
 55 54  1  0  0  0
 54 41  1  0  0  0
 41 42  1  0  0  0
 42 43  1  0  0  0
 43 44  2  0  0  0
 43 46  1  0  0  0
 46 47  1  0  0  0
 47 48  1  0  0  0
 48 49  2  0  0  0
 49 50  1  0  0  0
 50 51  2  0  0  0
 51 52  1  0  0  0
 52 53  2  0  0  0
 41 37  1  0  0  0
 37 38  2  0  0  0
 37 39  1  0  0  0
 39 36  1  0  0  0
 36 65  1  0  0  0
 65 66  1  0  0  0
 66 67  2  0  0  0
 67 68  1  0  0  0
 68 69  2  0  0  0
 69 70  1  0  0  0
 70 71  2  0  0  0
 36 32  1  0  0  0
 32 33  2  0  0  0
 32 34  1  0  0  0
 34  1  1  0  0  0
  1 72  1  0  0  0
 72 73  1  0  0  0
 73 74  1  0  0  0
 74 75  1  0  0  0
 75 77  1  0  0  0
 77 78  1  0  0  0
 77 79  2  0  0  0
  1  2  1  0  0  0
  2  3  2  0  0  0
  2  4  1  0  0  0
  4  6  1  0  0  0
  6 25  1  0  0  0
 25 26  1  0  0  0
 26 27  1  0  0  0
 26 28  2  0  0  0
  6  7  1  0  0  0
  7  8  2  0  0  0
  7  9  1  0  0  0
  9 11  1  0  0  0
 11 18  1  0  0  0
 18 19  1  0  0  0
 19 20  2  0  0  0
 20 21  1  0  0  0
 21 22  2  0  0  0
 22 23  1  0  0  0
 23 24  2  0  0  0
 11 12  1  0  0  0
 12 13  1  0  0  0
 12 14  2  0  0  0
 53 48  1  0  0  0
 71 66  1  0  0  0
 24 19  1  0  0  0
 59 62  1  0  0  0
 59 63  1  0  0  0
 61 64  1  0  0  0
 57 58  1  0  0  0
 42 45  1  0  0  0
 39 40  1  0  0  0
 34 35  1  0  0  0
 75 76  1  0  0  0
 78 80  1  0  0  0
 78 81  1  0  0  0
 79 82  1  0  0  0
  4  5  1  0  0  0
 27 29  1  0  0  0
 27 30  1  0  0  0
 28 31  1  0  0  0
  9 10  1  0  0  0
 13 15  1  0  0  0
 13 16  1  0  0  0
 14 17  1  0  0  0
M  END
> <minimizedAffinity>
11.03808

> <CNNscore>
0.5368996263

> <CNNaffinity>
8.1796760559

> <CNN_VS>
4.3916649818

> <CNNaffinity_variance>
0.1958996505

$$$$
[H]N=C(N([H])[H])N([H])C([H])([H])C([H])([H])C([H])([H])[C@@]([H])(C(=O)N([H])[C@]([H])(C(=O)N([H])[C@]([H])(C(=N[H])N([H])[H])C([H])([H])c1c([H])c([H])c([H])c([H])c1[H])C([H])([H])C(=N[H])N([H])[H])N([H])C(=O)[C@@]([H])(N([H])C(=O)[C@@]([H])(N([H])C(=O)OC([H])([H])c1c([H])c([H])c([H])c([H])c1[H])C([H])([H])C([H])([H])C([H])([H])N([H])C(=N[H])N([H])[H])C([H])([H])c1c([H])c([H])c([H])c([H])c1[H]


 82 84  0  0  0  0  0  0  0  0999 V2000
    7.8211   46.4497  129.0055 C   0  0  0  0  0  0  0  0  0  0  0  0
    6.9290   47.5540  128.6422 C   0  0  0  0  0  0  0  0  0  0  0  0
    5.6981   47.3751  128.4370 O   0  0  0  0  0  0  0  0  0  0  0  0
    7.3691   48.9254  128.4910 N   0  0  0  0  0  0  0  0  0  0  0  0
    8.4015   49.0982  128.5766 H   0  0  0  0  0  0  0  0  0  0  0  0
    6.4681   49.9950  128.2140 C   0  0  0  0  0  0  0  0  0  0  0  0
    7.0987   51.3668  128.1927 C   0  0  0  0  0  0  0  0  0  0  0  0
    7.5293   51.8205  129.2626 O   0  0  0  0  0  0  0  0  0  0  0  0
    7.1795   52.0747  126.9721 N   0  0  0  0  0  0  0  0  0  0  0  0
    6.7818   51.6284  126.1150 H   0  0  0  0  0  0  0  0  0  0  0  0
    7.7880   53.3761  126.9092 C   0  0  0  0  0  0  0  0  0  0  0  0
    6.8222   54.4588  127.1044 C   0  0  0  0  0  0  0  0  0  0  0  0
    5.4541   54.3465  126.7078 N   0  0  0  0  0  0  0  0  0  0  0  0
    7.1663   55.5989  127.6511 N   0  0  0  0  0  0  0  0  0  0  0  0
    4.6723   54.8677  127.1037 H   0  0  0  0  0  0  0  0  0  0  0  0
    5.2921   53.6366  125.9292 H   0  0  0  0  0  0  0  0  0  0  0  0
    8.1605   55.7436  127.9598 H   0  0  0  0  0  0  0  0  0  0  0  0
    8.6440   53.5231  125.6563 C   0  0  0  0  0  0  0  0  0  0  0  0
    7.8594   53.8522  124.4656 C   0  0  0  0  0  0  0  0  0  0  0  0
    6.6926   54.5545  124.5111 C   0  0  0  0  0  0  0  0  0  0  0  0
    5.9975   54.8114  123.3501 C   0  0  0  0  0  0  0  0  0  0  0  0
    6.4649   54.3651  122.1176 C   0  0  0  0  0  0  0  0  0  0  0  0
    7.6378   53.6589  122.0668 C   0  0  0  0  0  0  0  0  0  0  0  0
    8.3170   53.4139  123.2421 C   0  0  0  0  0  0  0  0  0  0  0  0
    5.2563   49.9416  129.1053 C   0  0  0  0  0  0  0  0  0  0  0  0
    5.5355   50.3347  130.4994 C   0  0  0  0  0  0  0  0  0  0  0  0
    4.6131   51.1819  131.1690 N   0  0  0  0  0  0  0  0  0  0  0  0
    6.6030   49.9705  131.1491 N   0  0  0  0  0  0  0  0  0  0  0  0
    3.6308   50.9025  131.3742 H   0  0  0  0  0  0  0  0  0  0  0  0
    4.8969   52.1600  131.4929 H   0  0  0  0  0  0  0  0  0  0  0  0
    7.2787   49.3741  130.6440 H   0  0  0  0  0  0  0  0  0  0  0  0
    7.1799   45.9504  131.4502 C   0  0  0  0  0  0  0  0  0  0  0  0
    5.9215   46.0191  131.4614 O   0  0  0  0  0  0  0  0  0  0  0  0
    8.0342   46.1268  130.3702 N   0  0  0  0  0  0  0  0  0  0  0  0
    9.0989   45.9976  130.6138 H   0  0  0  0  0  0  0  0  0  0  0  0
    7.7468   45.6299  132.8305 C   0  0  0  0  0  0  0  0  0  0  0  0
    9.7417   44.1041  133.1986 C   0  0  0  0  0  0  0  0  0  0  0  0
    8.9531   43.2232  133.6956 O   0  0  0  0  0  0  0  0  0  0  0  0
    9.1397   45.2842  132.7555 N   0  0  0  0  0  0  0  0  0  0  0  0
    9.7823   45.9901  132.2897 H   0  0  0  0  0  0  0  0  0  0  0  0
   11.1612   43.7481  133.1598 C   0  0  0  0  0  0  0  0  0  0  0  0
   11.8433   43.9688  131.9431 N   0  0  0  0  0  0  0  0  0  0  0  0
   13.0021   43.5354  131.3419 C   0  0  0  0  0  0  0  0  0  0  0  0
   13.8455   42.7340  131.7775 O   0  0  0  0  0  0  0  0  0  0  0  0
   11.2492   44.7078  131.3209 H   0  0  0  0  0  0  0  0  0  0  0  0
   13.3391   44.0309  130.0500 O   0  0  0  0  0  0  0  0  0  0  0  0
   12.3937   44.3495  129.0681 C   0  0  0  0  0  0  0  0  0  0  0  0
   11.7464   45.6409  129.3843 C   0  0  0  0  0  0  0  0  0  0  0  0
   11.2693   46.4739  128.3579 C   0  0  0  0  0  0  0  0  0  0  0  0
   10.6910   47.6930  128.6189 C   0  0  0  0  0  0  0  0  0  0  0  0
   10.5609   48.1364  129.9438 C   0  0  0  0  0  0  0  0  0  0  0  0
   11.0276   47.3173  130.9359 C   0  0  0  0  0  0  0  0  0  0  0  0
   11.6072   46.1008  130.6808 C   0  0  0  0  0  0  0  0  0  0  0  0
   11.8721   43.9894  134.4316 C   0  0  0  0  0  0  0  0  0  0  0  0
   13.1505   44.7329  134.5034 C   0  0  0  0  0  0  0  0  0  0  0  0
   13.0789   46.1714  134.8505 C   0  0  0  0  0  0  0  0  0  0  0  0
   14.1075   47.0636  135.0468 N   0  0  0  0  0  0  0  0  0  0  0  0
   14.8394   47.1813  134.2485 H   0  0  0  0  0  0  0  0  0  0  0  0
   15.4766   47.5490  137.0023 N   0  0  0  0  0  0  0  0  0  0  0  0
   14.4118   47.9108  136.1578 C   0  0  0  0  0  0  0  0  0  0  0  0
   13.7148   48.9508  136.3453 N   0  0  0  0  0  0  0  0  0  0  0  0
   15.3526   47.6396  138.0295 H   0  0  0  0  0  0  0  0  0  0  0  0
   16.3724   47.2007  136.6333 H   0  0  0  0  0  0  0  0  0  0  0  0
   13.9594   49.5758  137.1870 H   0  0  0  0  0  0  0  0  0  0  0  0
    7.5290   46.7021  133.8329 C   0  0  0  0  0  0  0  0  0  0  0  0
    8.6335   47.6907  133.7532 C   0  0  0  0  0  0  0  0  0  0  0  0
    8.4578   48.7802  132.9221 C   0  0  0  0  0  0  0  0  0  0  0  0
    9.4901   49.6816  132.8103 C   0  0  0  0  0  0  0  0  0  0  0  0
   10.6741   49.4942  133.5191 C   0  0  0  0  0  0  0  0  0  0  0  0
   10.8393   48.3892  134.3571 C   0  0  0  0  0  0  0  0  0  0  0  0
    9.7862   47.4997  134.4500 C   0  0  0  0  0  0  0  0  0  0  0  0
    7.6948   45.2946  128.0915 C   0  0  0  0  0  0  0  0  0  0  0  0
    9.0127   44.6870  127.6543 C   0  0  0  0  0  0  0  0  0  0  0  0
    9.3813   43.4340  128.3625 C   0  0  0  0  0  0  0  0  0  0  0  0
    8.8083   43.4109  129.6708 N   0  0  0  0  0  0  0  0  0  0  0  0
    8.4668   44.3008  130.1077 H   0  0  0  0  0  0  0  0  0  0  0  0
    8.6716   42.2092  130.4257 C   0  0  0  0  0  0  0  0  0  0  0  0
    9.8279   41.5752  130.9198 N   0  0  0  0  0  0  0  0  0  0  0  0
    7.5296   41.7100  130.6620 N   0  0  0  0  0  0  0  0  0  0  0  0
   10.5523   41.2437  130.2461 H   0  0  0  0  0  0  0  0  0  0  0  0
    9.9927   41.4228  131.9272 H   0  0  0  0  0  0  0  0  0  0  0  0
    7.4204   40.8302  131.2120 H   0  0  0  0  0  0  0  0  0  0  0  0
 59 60  1  0  0  0
 60 61  2  0  0  0
 60 57  1  0  0  0
 57 56  1  0  0  0
 56 55  1  0  0  0
 55 54  1  0  0  0
 54 41  1  0  0  0
 41 42  1  0  0  0
 42 43  1  0  0  0
 43 44  2  0  0  0
 43 46  1  0  0  0
 46 47  1  0  0  0
 47 48  1  0  0  0
 48 49  2  0  0  0
 49 50  1  0  0  0
 50 51  2  0  0  0
 51 52  1  0  0  0
 52 53  2  0  0  0
 41 37  1  0  0  0
 37 38  2  0  0  0
 37 39  1  0  0  0
 39 36  1  0  0  0
 36 65  1  0  0  0
 65 66  1  0  0  0
 66 67  2  0  0  0
 67 68  1  0  0  0
 68 69  2  0  0  0
 69 70  1  0  0  0
 70 71  2  0  0  0
 36 32  1  0  0  0
 32 33  2  0  0  0
 32 34  1  0  0  0
 34  1  1  0  0  0
  1 72  1  0  0  0
 72 73  1  0  0  0
 73 74  1  0  0  0
 74 75  1  0  0  0
 75 77  1  0  0  0
 77 78  1  0  0  0
 77 79  2  0  0  0
  1  2  1  0  0  0
  2  3  2  0  0  0
  2  4  1  0  0  0
  4  6  1  0  0  0
  6 25  1  0  0  0
 25 26  1  0  0  0
 26 27  1  0  0  0
 26 28  2  0  0  0
  6  7  1  0  0  0
  7  8  2  0  0  0
  7  9  1  0  0  0
  9 11  1  0  0  0
 11 18  1  0  0  0
 18 19  1  0  0  0
 19 20  2  0  0  0
 20 21  1  0  0  0
 21 22  2  0  0  0
 22 23  1  0  0  0
 23 24  2  0  0  0
 11 12  1  0  0  0
 12 13  1  0  0  0
 12 14  2  0  0  0
 53 48  1  0  0  0
 71 66  1  0  0  0
 24 19  1  0  0  0
 59 62  1  0  0  0
 59 63  1  0  0  0
 61 64  1  0  0  0
 57 58  1  0  0  0
 42 45  1  0  0  0
 39 40  1  0  0  0
 34 35  1  0  0  0
 75 76  1  0  0  0
 78 80  1  0  0  0
 78 81  1  0  0  0
 79 82  1  0  0  0
  4  5  1  0  0  0
 27 29  1  0  0  0
 27 30  1  0  0  0
 28 31  1  0  0  0
  9 10  1  0  0  0
 13 15  1  0  0  0
 13 16  1  0  0  0
 14 17  1  0  0  0
M  END
> <minimizedAffinity>
12.91434

> <CNNscore>
0.5352845788

> <CNNaffinity>
8.0387954712

> <CNN_VS>
4.3030433655

> <CNNaffinity_variance>
0.4363353252

$$$$
[H]N=C(N([H])[H])N([H])C([H])([H])C([H])([H])C([H])([H])[C@@]([H])(C(=O)N([H])[C@]([H])(C(=O)N([H])[C@]([H])(C(=N[H])N([H])[H])C([H])([H])c1c([H])c([H])c([H])c([H])c1[H])C([H])([H])C(=N[H])N([H])[H])N([H])C(=O)[C@@]([H])(N([H])C(=O)[C@@]([H])(N([H])C(=O)OC([H])([H])c1c([H])c([H])c([H])c([H])c1[H])C([H])([H])C([H])([H])C([H])([H])N([H])C(=N[H])N([H])[H])C([H])([H])c1c([H])c([H])c([H])c([H])c1[H]


 82 84  0  0  0  0  0  0  0  0999 V2000
    9.6838   49.5583  132.4682 C   0  0  0  0  0  0  0  0  0  0  0  0
    9.7952   48.2325  133.0822 C   0  0  0  0  0  0  0  0  0  0  0  0
    8.7878   47.4967  133.2642 O   0  0  0  0  0  0  0  0  0  0  0  0
   11.0474   47.6553  133.5251 N   0  0  0  0  0  0  0  0  0  0  0  0
   11.8955   48.2714  133.4618 H   0  0  0  0  0  0  0  0  0  0  0  0
   11.1408   46.3321  134.0475 C   0  0  0  0  0  0  0  0  0  0  0  0
   11.9702   45.3799  133.2195 C   0  0  0  0  0  0  0  0  0  0  0  0
   12.8064   44.6805  133.8092 O   0  0  0  0  0  0  0  0  0  0  0  0
   11.7657   45.3159  131.8225 N   0  0  0  0  0  0  0  0  0  0  0  0
   11.0495   45.9479  131.3987 H   0  0  0  0  0  0  0  0  0  0  0  0
   12.5245   44.4097  131.0034 C   0  0  0  0  0  0  0  0  0  0  0  0
   12.5489   44.8099  129.5954 C   0  0  0  0  0  0  0  0  0  0  0  0
   11.4510   45.4758  128.9686 N   0  0  0  0  0  0  0  0  0  0  0  0
   13.5842   44.5705  128.8288 N   0  0  0  0  0  0  0  0  0  0  0  0
   11.5074   46.0804  128.1495 H   0  0  0  0  0  0  0  0  0  0  0  0
   10.5139   45.2943  129.4434 H   0  0  0  0  0  0  0  0  0  0  0  0
   14.4216   44.0792  129.2316 H   0  0  0  0  0  0  0  0  0  0  0  0
   12.0912   42.9663  131.2334 C   0  0  0  0  0  0  0  0  0  0  0  0
   10.6379   42.8134  131.3132 C   0  0  0  0  0  0  0  0  0  0  0  0
    9.9463   42.8540  132.4866 C   0  0  0  0  0  0  0  0  0  0  0  0
    8.5796   42.6837  132.4870 C   0  0  0  0  0  0  0  0  0  0  0  0
    7.8808   42.4687  131.3028 C   0  0  0  0  0  0  0  0  0  0  0  0
    8.5718   42.4275  130.1205 C   0  0  0  0  0  0  0  0  0  0  0  0
    9.9399   42.6010  130.1444 C   0  0  0  0  0  0  0  0  0  0  0  0
    9.7830   45.7682  134.3701 C   0  0  0  0  0  0  0  0  0  0  0  0
    9.1947   46.3241  135.6033 C   0  0  0  0  0  0  0  0  0  0  0  0
    7.8879   46.8776  135.5485 N   0  0  0  0  0  0  0  0  0  0  0  0
    9.8204   46.3636  136.7440 N   0  0  0  0  0  0  0  0  0  0  0  0
    7.0418   46.3150  135.3189 H   0  0  0  0  0  0  0  0  0  0  0  0
    7.7194   47.9149  135.7427 H   0  0  0  0  0  0  0  0  0  0  0  0
   10.7793   45.9800  136.7664 H   0  0  0  0  0  0  0  0  0  0  0  0
    8.2788   50.3167  130.4463 C   0  0  0  0  0  0  0  0  0  0  0  0
    9.1181   50.4420  129.5145 O   0  0  0  0  0  0  0  0  0  0  0  0
    8.5108   49.9158  131.7550 N   0  0  0  0  0  0  0  0  0  0  0  0
    7.6053   49.8681  132.3775 H   0  0  0  0  0  0  0  0  0  0  0  0
    6.8645   50.6669  129.9920 C   0  0  0  0  0  0  0  0  0  0  0  0
    7.0181   52.1973  127.9727 C   0  0  0  0  0  0  0  0  0  0  0  0
    7.2113   51.1691  127.2310 O   0  0  0  0  0  0  0  0  0  0  0  0
    6.8288   51.9438  129.3334 N   0  0  0  0  0  0  0  0  0  0  0  0
    6.6097   52.7878  129.9398 H   0  0  0  0  0  0  0  0  0  0  0  0
    7.0172   53.4923  127.2898 C   0  0  0  0  0  0  0  0  0  0  0  0
    7.8263   53.6091  126.1383 N   0  0  0  0  0  0  0  0  0  0  0  0
    8.7260   54.5136  125.6238 C   0  0  0  0  0  0  0  0  0  0  0  0
    9.1009   55.5931  126.1110 O   0  0  0  0  0  0  0  0  0  0  0  0
    7.6641   52.6968  125.4846 H   0  0  0  0  0  0  0  0  0  0  0  0
    9.3458   54.2377  124.3717 O   0  0  0  0  0  0  0  0  0  0  0  0
    8.9810   54.8563  123.1701 C   0  0  0  0  0  0  0  0  0  0  0  0
    7.5224   54.7379  122.9586 C   0  0  0  0  0  0  0  0  0  0  0  0
    7.0038   53.8027  122.0468 C   0  0  0  0  0  0  0  0  0  0  0  0
    5.6553   53.6902  121.8064 C   0  0  0  0  0  0  0  0  0  0  0  0
    4.7520   54.5233  122.4839 C   0  0  0  0  0  0  0  0  0  0  0  0
    5.2671   55.4298  123.3705 C   0  0  0  0  0  0  0  0  0  0  0  0
    6.6119   55.5473  123.6126 C   0  0  0  0  0  0  0  0  0  0  0  0
    5.7113   54.1813  127.3186 C   0  0  0  0  0  0  0  0  0  0  0  0
    5.1092   54.8024  126.1169 C   0  0  0  0  0  0  0  0  0  0  0  0
    3.8710   55.5925  126.3109 C   0  0  0  0  0  0  0  0  0  0  0  0
    2.5707   55.1514  126.3949 N   0  0  0  0  0  0  0  0  0  0  0  0
    1.8135   55.8584  126.7322 H   0  0  0  0  0  0  0  0  0  0  0  0
    0.9493   53.4123  126.9249 N   0  0  0  0  0  0  0  0  0  0  0  0
    1.9954   53.8745  126.1065 C   0  0  0  0  0  0  0  0  0  0  0  0
    2.4465   53.2046  125.1315 N   0  0  0  0  0  0  0  0  0  0  0  0
    0.9526   52.4185  127.2264 H   0  0  0  0  0  0  0  0  0  0  0  0
    0.1823   54.0274  127.2304 H   0  0  0  0  0  0  0  0  0  0  0  0
    2.0004   52.2457  124.9304 H   0  0  0  0  0  0  0  0  0  0  0  0
    6.2305   49.6259  129.1457 C   0  0  0  0  0  0  0  0  0  0  0  0
    6.8830   48.3159  129.3945 C   0  0  0  0  0  0  0  0  0  0  0  0
    8.1113   48.0908  128.8035 C   0  0  0  0  0  0  0  0  0  0  0  0
    8.7065   46.8662  128.9951 C   0  0  0  0  0  0  0  0  0  0  0  0
    8.0825   45.8878  129.7650 C   0  0  0  0  0  0  0  0  0  0  0  0
    6.8411   46.1279  130.3582 C   0  0  0  0  0  0  0  0  0  0  0  0
    6.2661   47.3665  130.1487 C   0  0  0  0  0  0  0  0  0  0  0  0
   10.2639   50.6246  133.3121 C   0  0  0  0  0  0  0  0  0  0  0  0
    9.3342   51.7893  133.5876 C   0  0  0  0  0  0  0  0  0  0  0  0
    8.6377   51.7283  134.8986 C   0  0  0  0  0  0  0  0  0  0  0  0
    8.8894   52.9136  135.6551 N   0  0  0  0  0  0  0  0  0  0  0  0
    9.8726   53.2563  135.7781 H   0  0  0  0  0  0  0  0  0  0  0  0
    7.8446   53.6717  136.2605 C   0  0  0  0  0  0  0  0  0  0  0  0
    8.1733   54.6400  137.2287 N   0  0  0  0  0  0  0  0  0  0  0  0
    6.6316   53.4913  135.9363 N   0  0  0  0  0  0  0  0  0  0  0  0
    8.6617   54.3405  138.1007 H   0  0  0  0  0  0  0  0  0  0  0  0
    7.9514   55.6413  137.1134 H   0  0  0  0  0  0  0  0  0  0  0  0
    5.8606   54.0403  136.3753 H   0  0  0  0  0  0  0  0  0  0  0  0
 59 60  1  0  0  0
 60 61  2  0  0  0
 60 57  1  0  0  0
 57 56  1  0  0  0
 56 55  1  0  0  0
 55 54  1  0  0  0
 54 41  1  0  0  0
 41 42  1  0  0  0
 42 43  1  0  0  0
 43 44  2  0  0  0
 43 46  1  0  0  0
 46 47  1  0  0  0
 47 48  1  0  0  0
 48 49  2  0  0  0
 49 50  1  0  0  0
 50 51  2  0  0  0
 51 52  1  0  0  0
 52 53  2  0  0  0
 41 37  1  0  0  0
 37 38  2  0  0  0
 37 39  1  0  0  0
 39 36  1  0  0  0
 36 65  1  0  0  0
 65 66  1  0  0  0
 66 67  2  0  0  0
 67 68  1  0  0  0
 68 69  2  0  0  0
 69 70  1  0  0  0
 70 71  2  0  0  0
 36 32  1  0  0  0
 32 33  2  0  0  0
 32 34  1  0  0  0
 34  1  1  0  0  0
  1 72  1  0  0  0
 72 73  1  0  0  0
 73 74  1  0  0  0
 74 75  1  0  0  0
 75 77  1  0  0  0
 77 78  1  0  0  0
 77 79  2  0  0  0
  1  2  1  0  0  0
  2  3  2  0  0  0
  2  4  1  0  0  0
  4  6  1  0  0  0
  6 25  1  0  0  0
 25 26  1  0  0  0
 26 27  1  0  0  0
 26 28  2  0  0  0
  6  7  1  0  0  0
  7  8  2  0  0  0
  7  9  1  0  0  0
  9 11  1  0  0  0
 11 18  1  0  0  0
 18 19  1  0  0  0
 19 20  2  0  0  0
 20 21  1  0  0  0
 21 22  2  0  0  0
 22 23  1  0  0  0
 23 24  2  0  0  0
 11 12  1  0  0  0
 12 13  1  0  0  0
 12 14  2  0  0  0
 53 48  1  0  0  0
 71 66  1  0  0  0
 24 19  1  0  0  0
 59 62  1  0  0  0
 59 63  1  0  0  0
 61 64  1  0  0  0
 57 58  1  0  0  0
 42 45  1  0  0  0
 39 40  1  0  0  0
 34 35  1  0  0  0
 75 76  1  0  0  0
 78 80  1  0  0  0
 78 81  1  0  0  0
 79 82  1  0  0  0
  4  5  1  0  0  0
 27 29  1  0  0  0
 27 30  1  0  0  0
 28 31  1  0  0  0
  9 10  1  0  0  0
 13 15  1  0  0  0
 13 16  1  0  0  0
 14 17  1  0  0  0
M  END
> <minimizedAffinity>
8.44586

> <CNNscore>
0.5317012668

> <CNNaffinity>
8.5853300095

> <CNN_VS>
4.5648307800

> <CNNaffinity_variance>
0.4536317885

$$$$
[H]N=C(N([H])[H])N([H])C([H])([H])C([H])([H])C([H])([H])[C@@]([H])(C(=O)N([H])[C@]([H])(C(=O)N([H])[C@]([H])(C(=N[H])N([H])[H])C([H])([H])c1c([H])c([H])c([H])c([H])c1[H])C([H])([H])C(=N[H])N([H])[H])N([H])C(=O)[C@@]([H])(N([H])C(=O)[C@@]([H])(N([H])C(=O)OC([H])([H])c1c([H])c([H])c([H])c([H])c1[H])C([H])([H])C([H])([H])C([H])([H])N([H])C(=N[H])N([H])[H])C([H])([H])c1c([H])c([H])c([H])c([H])c1[H]


 82 84  0  0  0  0  0  0  0  0999 V2000
    7.3035   50.4162  128.5593 C   0  0  0  0  0  0  0  0  0  0  0  0
    7.2488   51.8443  128.2356 C   0  0  0  0  0  0  0  0  0  0  0  0
    7.2811   52.7312  129.1309 O   0  0  0  0  0  0  0  0  0  0  0  0
    7.1574   52.3586  126.8849 N   0  0  0  0  0  0  0  0  0  0  0  0
    7.0485   51.6479  126.1194 H   0  0  0  0  0  0  0  0  0  0  0  0
    7.1848   53.7533  126.5907 C   0  0  0  0  0  0  0  0  0  0  0  0
    5.8407   54.4394  126.6418 C   0  0  0  0  0  0  0  0  0  0  0  0
    5.7960   55.5870  127.1077 O   0  0  0  0  0  0  0  0  0  0  0  0
    4.6971   53.7625  126.1604 N   0  0  0  0  0  0  0  0  0  0  0  0
    4.8160   52.7910  125.7942 H   0  0  0  0  0  0  0  0  0  0  0  0
    3.4032   54.3895  126.1772 C   0  0  0  0  0  0  0  0  0  0  0  0
    2.3233   53.4436  126.4640 C   0  0  0  0  0  0  0  0  0  0  0  0
    2.4769   52.0324  126.3012 N   0  0  0  0  0  0  0  0  0  0  0  0
    1.1482   53.8455  126.8818 N   0  0  0  0  0  0  0  0  0  0  0  0
    1.9430   51.3130  126.7882 H   0  0  0  0  0  0  0  0  0  0  0  0
    3.2342   51.7631  125.6009 H   0  0  0  0  0  0  0  0  0  0  0  0
    0.9723   54.8730  127.0166 H   0  0  0  0  0  0  0  0  0  0  0  0
    3.1814   55.2266  124.9225 C   0  0  0  0  0  0  0  0  0  0  0  0
    3.8041   54.6455  123.7324 C   0  0  0  0  0  0  0  0  0  0  0  0
    3.1391   53.8346  122.8624 C   0  0  0  0  0  0  0  0  0  0  0  0
    3.7959   53.3082  121.7721 C   0  0  0  0  0  0  0  0  0  0  0  0
    5.1384   53.5889  121.5361 C   0  0  0  0  0  0  0  0  0  0  0  0
    5.8110   54.4041  122.4079 C   0  0  0  0  0  0  0  0  0  0  0  0
    5.1328   54.9200  123.4925 C   0  0  0  0  0  0  0  0  0  0  0  0
    7.9156   54.0325  125.3047 C   0  0  0  0  0  0  0  0  0  0  0  0
    8.9290   55.0976  125.4250 C   0  0  0  0  0  0  0  0  0  0  0  0
    9.5461   55.5910  124.2448 N   0  0  0  0  0  0  0  0  0  0  0  0
    9.3157   55.5969  126.5632 N   0  0  0  0  0  0  0  0  0  0  0  0
    9.0207   56.0837  123.4924 H   0  0  0  0  0  0  0  0  0  0  0  0
   10.5951   55.4710  124.0791 H   0  0  0  0  0  0  0  0  0  0  0  0
    8.8774   55.2135  127.4165 H   0  0  0  0  0  0  0  0  0  0  0  0
    7.1481   49.8852  131.0755 C   0  0  0  0  0  0  0  0  0  0  0  0
    5.9494   50.1367  131.3725 O   0  0  0  0  0  0  0  0  0  0  0  0
    7.7599   49.9926  129.8338 N   0  0  0  0  0  0  0  0  0  0  0  0
    8.8189   49.6959  129.8276 H   0  0  0  0  0  0  0  0  0  0  0  0
    7.9490   49.4113  132.2852 C   0  0  0  0  0  0  0  0  0  0  0  0
    9.3539   47.4299  131.5481 C   0  0  0  0  0  0  0  0  0  0  0  0
   10.1893   48.2438  131.0150 O   0  0  0  0  0  0  0  0  0  0  0  0
    8.2580   48.0109  132.1907 N   0  0  0  0  0  0  0  0  0  0  0  0
    7.5967   47.3418  132.6837 H   0  0  0  0  0  0  0  0  0  0  0  0
    9.6678   46.0062  131.4141 C   0  0  0  0  0  0  0  0  0  0  0  0
    9.9319   45.5289  130.1115 N   0  0  0  0  0  0  0  0  0  0  0  0
    9.8896   46.0212  128.8278 C   0  0  0  0  0  0  0  0  0  0  0  0
    9.5688   47.1593  128.4468 O   0  0  0  0  0  0  0  0  0  0  0  0
   10.2632   44.4465  130.1800 H   0  0  0  0  0  0  0  0  0  0  0  0
   10.2484   45.1668  127.7464 O   0  0  0  0  0  0  0  0  0  0  0  0
    9.7795   43.8558  127.6023 C   0  0  0  0  0  0  0  0  0  0  0  0
    9.5273   43.2561  128.9302 C   0  0  0  0  0  0  0  0  0  0  0  0
   10.5421   42.5570  129.6055 C   0  0  0  0  0  0  0  0  0  0  0  0
   10.3291   41.9630  130.8265 C   0  0  0  0  0  0  0  0  0  0  0  0
    9.0678   42.0484  131.4355 C   0  0  0  0  0  0  0  0  0  0  0  0
    8.0868   42.7324  130.7702 C   0  0  0  0  0  0  0  0  0  0  0  0
    8.2936   43.3253  129.5509 C   0  0  0  0  0  0  0  0  0  0  0  0
   10.4389   45.4558  132.5470 C   0  0  0  0  0  0  0  0  0  0  0  0
   11.9125   45.3140  132.5162 C   0  0  0  0  0  0  0  0  0  0  0  0
   12.4684   44.1898  131.7274 C   0  0  0  0  0  0  0  0  0  0  0  0
   13.6085   44.1566  130.9582 N   0  0  0  0  0  0  0  0  0  0  0  0
   14.5497   43.9173  131.4520 H   0  0  0  0  0  0  0  0  0  0  0  0
   15.0936   44.2320  129.0287 N   0  0  0  0  0  0  0  0  0  0  0  0
   13.8008   44.3872  129.5602 C   0  0  0  0  0  0  0  0  0  0  0  0
   12.8074   44.7246  128.8518 N   0  0  0  0  0  0  0  0  0  0  0  0
   15.4419   44.9353  128.3484 H   0  0  0  0  0  0  0  0  0  0  0  0
   15.7012   43.4436  129.2915 H   0  0  0  0  0  0  0  0  0  0  0  0
   12.9723   44.8937  127.8014 H   0  0  0  0  0  0  0  0  0  0  0  0
    9.1798   50.2009  132.5374 C   0  0  0  0  0  0  0  0  0  0  0  0
   10.0462   49.4787  133.5025 C   0  0  0  0  0  0  0  0  0  0  0  0
    9.5252   48.3536  134.1119 C   0  0  0  0  0  0  0  0  0  0  0  0
   10.3046   47.6996  135.0368 C   0  0  0  0  0  0  0  0  0  0  0  0
   11.5811   48.1643  135.3431 C   0  0  0  0  0  0  0  0  0  0  0  0
   12.0971   49.3024  134.7193 C   0  0  0  0  0  0  0  0  0  0  0  0
   11.2923   49.9397  133.7947 C   0  0  0  0  0  0  0  0  0  0  0  0
    6.1504   49.6671  128.0162 C   0  0  0  0  0  0  0  0  0  0  0  0
    5.0245   49.4358  129.0040 C   0  0  0  0  0  0  0  0  0  0  0  0
    4.4407   48.0700  128.9680 C   0  0  0  0  0  0  0  0  0  0  0  0
    4.9726   47.2700  130.0251 N   0  0  0  0  0  0  0  0  0  0  0  0
    4.4540   47.1914  130.9330 H   0  0  0  0  0  0  0  0  0  0  0  0
    6.1994   46.5543  129.9008 C   0  0  0  0  0  0  0  0  0  0  0  0
    6.6503   45.7743  130.9831 N   0  0  0  0  0  0  0  0  0  0  0  0
    6.8827   46.6054  128.8332 N   0  0  0  0  0  0  0  0  0  0  0  0
    6.8428   46.2380  131.8976 H   0  0  0  0  0  0  0  0  0  0  0  0
    6.7996   44.7555  130.9119 H   0  0  0  0  0  0  0  0  0  0  0  0
    7.7823   46.0864  128.7342 H   0  0  0  0  0  0  0  0  0  0  0  0
 59 60  1  0  0  0
 60 61  2  0  0  0
 60 57  1  0  0  0
 57 56  1  0  0  0
 56 55  1  0  0  0
 55 54  1  0  0  0
 54 41  1  0  0  0
 41 42  1  0  0  0
 42 43  1  0  0  0
 43 44  2  0  0  0
 43 46  1  0  0  0
 46 47  1  0  0  0
 47 48  1  0  0  0
 48 49  2  0  0  0
 49 50  1  0  0  0
 50 51  2  0  0  0
 51 52  1  0  0  0
 52 53  2  0  0  0
 41 37  1  0  0  0
 37 38  2  0  0  0
 37 39  1  0  0  0
 39 36  1  0  0  0
 36 65  1  0  0  0
 65 66  1  0  0  0
 66 67  2  0  0  0
 67 68  1  0  0  0
 68 69  2  0  0  0
 69 70  1  0  0  0
 70 71  2  0  0  0
 36 32  1  0  0  0
 32 33  2  0  0  0
 32 34  1  0  0  0
 34  1  1  0  0  0
  1 72  1  0  0  0
 72 73  1  0  0  0
 73 74  1  0  0  0
 74 75  1  0  0  0
 75 77  1  0  0  0
 77 78  1  0  0  0
 77 79  2  0  0  0
  1  2  1  0  0  0
  2  3  2  0  0  0
  2  4  1  0  0  0
  4  6  1  0  0  0
  6 25  1  0  0  0
 25 26  1  0  0  0
 26 27  1  0  0  0
 26 28  2  0  0  0
  6  7  1  0  0  0
  7  8  2  0  0  0
  7  9  1  0  0  0
  9 11  1  0  0  0
 11 18  1  0  0  0
 18 19  1  0  0  0
 19 20  2  0  0  0
 20 21  1  0  0  0
 21 22  2  0  0  0
 22 23  1  0  0  0
 23 24  2  0  0  0
 11 12  1  0  0  0
 12 13  1  0  0  0
 12 14  2  0  0  0
 53 48  1  0  0  0
 71 66  1  0  0  0
 24 19  1  0  0  0
 59 62  1  0  0  0
 59 63  1  0  0  0
 61 64  1  0  0  0
 57 58  1  0  0  0
 42 45  1  0  0  0
 39 40  1  0  0  0
 34 35  1  0  0  0
 75 76  1  0  0  0
 78 80  1  0  0  0
 78 81  1  0  0  0
 79 82  1  0  0  0
  4  5  1  0  0  0
 27 29  1  0  0  0
 27 30  1  0  0  0
 28 31  1  0  0  0
  9 10  1  0  0  0
 13 15  1  0  0  0
 13 16  1  0  0  0
 14 17  1  0  0  0
M  END
> <minimizedAffinity>
9.60877

> <CNNscore>
0.5237541795

> <CNNaffinity>
8.1189517975

> <CNN_VS>
4.2523350716

> <CNNaffinity_variance>
0.2992626131

$$$$
[H]N=C(N([H])[H])N([H])C([H])([H])C([H])([H])C([H])([H])[C@@]([H])(C(=O)N([H])[C@]([H])(C(=O)N([H])[C@]([H])(C(=N[H])N([H])[H])C([H])([H])c1c([H])c([H])c([H])c([H])c1[H])C([H])([H])C(=N[H])N([H])[H])N([H])C(=O)[C@@]([H])(N([H])C(=O)[C@@]([H])(N([H])C(=O)OC([H])([H])c1c([H])c([H])c([H])c([H])c1[H])C([H])([H])C([H])([H])C([H])([H])N([H])C(=N[H])N([H])[H])C([H])([H])c1c([H])c([H])c([H])c([H])c1[H]


 82 84  0  0  0  0  0  0  0  0999 V2000
    6.2734   46.8634  129.5116 C   0  0  0  0  0  0  0  0  0  0  0  0
    7.0602   45.6454  129.3004 C   0  0  0  0  0  0  0  0  0  0  0  0
    7.1200   45.0785  128.1760 O   0  0  0  0  0  0  0  0  0  0  0  0
    7.8283   44.9949  130.3416 N   0  0  0  0  0  0  0  0  0  0  0  0
    7.7383   45.3940  131.3089 H   0  0  0  0  0  0  0  0  0  0  0  0
    8.6485   43.8556  130.0929 C   0  0  0  0  0  0  0  0  0  0  0  0
    9.7762   43.6582  131.0774 C   0  0  0  0  0  0  0  0  0  0  0  0
   10.0731   42.4960  131.3893 O   0  0  0  0  0  0  0  0  0  0  0  0
   10.4478   44.7872  131.5991 N   0  0  0  0  0  0  0  0  0  0  0  0
   10.1293   45.7351  131.2958 H   0  0  0  0  0  0  0  0  0  0  0  0
   11.5372   44.6385  132.5257 C   0  0  0  0  0  0  0  0  0  0  0  0
   12.5892   43.7547  132.0202 C   0  0  0  0  0  0  0  0  0  0  0  0
   13.3325   44.0473  130.8355 N   0  0  0  0  0  0  0  0  0  0  0  0
   12.9019   42.6373  132.6290 N   0  0  0  0  0  0  0  0  0  0  0  0
   14.2679   43.7053  130.6171 H   0  0  0  0  0  0  0  0  0  0  0  0
   12.8187   44.6886  130.1564 H   0  0  0  0  0  0  0  0  0  0  0  0
   12.3870   42.3650  133.5039 H   0  0  0  0  0  0  0  0  0  0  0  0
   11.0305   44.2721  133.9161 C   0  0  0  0  0  0  0  0  0  0  0  0
    9.9492   45.1441  134.3766 C   0  0  0  0  0  0  0  0  0  0  0  0
    8.6528   44.9968  133.9836 C   0  0  0  0  0  0  0  0  0  0  0  0
    7.6902   45.8678  134.4439 C   0  0  0  0  0  0  0  0  0  0  0  0
    8.0151   46.9065  135.3113 C   0  0  0  0  0  0  0  0  0  0  0  0
    9.3171   47.0583  135.7095 C   0  0  0  0  0  0  0  0  0  0  0  0
   10.2639   46.1740  135.2360 C   0  0  0  0  0  0  0  0  0  0  0  0
    9.1283   43.8208  128.6666 C   0  0  0  0  0  0  0  0  0  0  0  0
   10.3288   44.6448  128.4311 C   0  0  0  0  0  0  0  0  0  0  0  0
   11.5333   44.0023  128.0392 N   0  0  0  0  0  0  0  0  0  0  0  0
   10.3572   45.9363  128.5908 N   0  0  0  0  0  0  0  0  0  0  0  0
   11.6335   43.4810  127.1429 H   0  0  0  0  0  0  0  0  0  0  0  0
   12.4005   44.0277  128.6631 H   0  0  0  0  0  0  0  0  0  0  0  0
    9.4818   46.3899  128.8994 H   0  0  0  0  0  0  0  0  0  0  0  0
    7.1423   49.0411  128.4440 C   0  0  0  0  0  0  0  0  0  0  0  0
    6.8088   48.9474  127.2322 O   0  0  0  0  0  0  0  0  0  0  0  0
    6.9031   48.1337  129.4671 N   0  0  0  0  0  0  0  0  0  0  0  0
    7.2814   48.4538  130.4490 H   0  0  0  0  0  0  0  0  0  0  0  0
    7.8929   50.3386  128.7312 C   0  0  0  0  0  0  0  0  0  0  0  0
    7.2963   52.6581  127.8902 C   0  0  0  0  0  0  0  0  0  0  0  0
    7.2122   53.0574  129.1060 O   0  0  0  0  0  0  0  0  0  0  0  0
    7.6508   51.3191  127.7087 N   0  0  0  0  0  0  0  0  0  0  0  0
    7.7790   51.0019  126.7032 H   0  0  0  0  0  0  0  0  0  0  0  0
    7.0148   53.6619  126.8624 C   0  0  0  0  0  0  0  0  0  0  0  0
    5.7175   54.2198  126.8511 N   0  0  0  0  0  0  0  0  0  0  0  0
    4.9717   55.0250  126.0218 C   0  0  0  0  0  0  0  0  0  0  0  0
    5.2973   55.5241  124.9318 O   0  0  0  0  0  0  0  0  0  0  0  0
    5.1745   53.8992  127.7936 H   0  0  0  0  0  0  0  0  0  0  0  0
    3.6437   55.3702  126.4029 O   0  0  0  0  0  0  0  0  0  0  0  0
    2.5113   55.0674  125.6377 C   0  0  0  0  0  0  0  0  0  0  0  0
    1.8690   53.8355  126.1439 C   0  0  0  0  0  0  0  0  0  0  0  0
    0.8319   53.9043  127.0897 C   0  0  0  0  0  0  0  0  0  0  0  0
    0.2365   52.7762  127.6013 C   0  0  0  0  0  0  0  0  0  0  0  0
    0.6606   51.5077  127.1770 C   0  0  0  0  0  0  0  0  0  0  0  0
    1.6703   51.4516  126.2549 C   0  0  0  0  0  0  0  0  0  0  0  0
    2.2689   52.5742  125.7427 C   0  0  0  0  0  0  0  0  0  0  0  0
    8.1677   54.5271  126.5415 C   0  0  0  0  0  0  0  0  0  0  0  0
    8.8895   54.4500  125.2509 C   0  0  0  0  0  0  0  0  0  0  0  0
    8.5447   55.4574  124.2208 C   0  0  0  0  0  0  0  0  0  0  0  0
    7.6851   55.3401  123.1532 N   0  0  0  0  0  0  0  0  0  0  0  0
    7.3702   56.2534  122.6496 H   0  0  0  0  0  0  0  0  0  0  0  0
    7.9312   53.0960  122.2379 N   0  0  0  0  0  0  0  0  0  0  0  0
    7.0977   54.1857  122.5475 C   0  0  0  0  0  0  0  0  0  0  0  0
    5.8545   54.1838  122.3083 N   0  0  0  0  0  0  0  0  0  0  0  0
    7.8072   52.6155  121.3255 H   0  0  0  0  0  0  0  0  0  0  0  0
    8.6560   52.7609  122.8876 H   0  0  0  0  0  0  0  0  0  0  0  0
    5.4310   53.3055  121.8520 H   0  0  0  0  0  0  0  0  0  0  0  0
    7.6178   50.9069  130.0741 C   0  0  0  0  0  0  0  0  0  0  0  0
    8.4198   50.1858  131.0942 C   0  0  0  0  0  0  0  0  0  0  0  0
    7.8000   49.8682  132.2874 C   0  0  0  0  0  0  0  0  0  0  0  0
    8.5448   49.2353  133.2546 C   0  0  0  0  0  0  0  0  0  0  0  0
    9.8837   48.9263  133.0286 C   0  0  0  0  0  0  0  0  0  0  0  0
   10.4987   49.2516  131.8175 C   0  0  0  0  0  0  0  0  0  0  0  0
    9.7269   49.8874  130.8641 C   0  0  0  0  0  0  0  0  0  0  0  0
    4.9390   46.7933  128.8792 C   0  0  0  0  0  0  0  0  0  0  0  0
    3.7987   47.2757  129.7533 C   0  0  0  0  0  0  0  0  0  0  0  0
    3.0187   46.1927  130.4061 C   0  0  0  0  0  0  0  0  0  0  0  0
    2.2528   45.4738  129.4381 N   0  0  0  0  0  0  0  0  0  0  0  0
    2.7105   44.7319  128.8554 H   0  0  0  0  0  0  0  0  0  0  0  0
    0.8646   45.7190  129.2245 C   0  0  0  0  0  0  0  0  0  0  0  0
    0.1235   44.8190  128.4348 N   0  0  0  0  0  0  0  0  0  0  0  0
    0.2906   46.7270  129.7380 N   0  0  0  0  0  0  0  0  0  0  0  0
    0.4008   44.6689  127.4403 H   0  0  0  0  0  0  0  0  0  0  0  0
   -0.6885   44.2961  128.7988 H   0  0  0  0  0  0  0  0  0  0  0  0
   -0.7242   46.9151  129.5855 H   0  0  0  0  0  0  0  0  0  0  0  0
 59 60  1  0  0  0
 60 61  2  0  0  0
 60 57  1  0  0  0
 57 56  1  0  0  0
 56 55  1  0  0  0
 55 54  1  0  0  0
 54 41  1  0  0  0
 41 42  1  0  0  0
 42 43  1  0  0  0
 43 44  2  0  0  0
 43 46  1  0  0  0
 46 47  1  0  0  0
 47 48  1  0  0  0
 48 49  2  0  0  0
 49 50  1  0  0  0
 50 51  2  0  0  0
 51 52  1  0  0  0
 52 53  2  0  0  0
 41 37  1  0  0  0
 37 38  2  0  0  0
 37 39  1  0  0  0
 39 36  1  0  0  0
 36 65  1  0  0  0
 65 66  1  0  0  0
 66 67  2  0  0  0
 67 68  1  0  0  0
 68 69  2  0  0  0
 69 70  1  0  0  0
 70 71  2  0  0  0
 36 32  1  0  0  0
 32 33  2  0  0  0
 32 34  1  0  0  0
 34  1  1  0  0  0
  1 72  1  0  0  0
 72 73  1  0  0  0
 73 74  1  0  0  0
 74 75  1  0  0  0
 75 77  1  0  0  0
 77 78  1  0  0  0
 77 79  2  0  0  0
  1  2  1  0  0  0
  2  3  2  0  0  0
  2  4  1  0  0  0
  4  6  1  0  0  0
  6 25  1  0  0  0
 25 26  1  0  0  0
 26 27  1  0  0  0
 26 28  2  0  0  0
  6  7  1  0  0  0
  7  8  2  0  0  0
  7  9  1  0  0  0
  9 11  1  0  0  0
 11 18  1  0  0  0
 18 19  1  0  0  0
 19 20  2  0  0  0
 20 21  1  0  0  0
 21 22  2  0  0  0
 22 23  1  0  0  0
 23 24  2  0  0  0
 11 12  1  0  0  0
 12 13  1  0  0  0
 12 14  2  0  0  0
 53 48  1  0  0  0
 71 66  1  0  0  0
 24 19  1  0  0  0
 59 62  1  0  0  0
 59 63  1  0  0  0
 61 64  1  0  0  0
 57 58  1  0  0  0
 42 45  1  0  0  0
 39 40  1  0  0  0
 34 35  1  0  0  0
 75 76  1  0  0  0
 78 80  1  0  0  0
 78 81  1  0  0  0
 79 82  1  0  0  0
  4  5  1  0  0  0
 27 29  1  0  0  0
 27 30  1  0  0  0
 28 31  1  0  0  0
  9 10  1  0  0  0
 13 15  1  0  0  0
 13 16  1  0  0  0
 14 17  1  0  0  0
M  END
> <minimizedAffinity>
4.61452

> <CNNscore>
0.5233504772

> <CNNaffinity>
8.6087579727

> <CNN_VS>
4.5053977966

> <CNNaffinity_variance>
0.4312754571

$$$$
[H]N=C(N([H])[H])N([H])C([H])([H])C([H])([H])C([H])([H])[C@@]([H])(C(=O)N([H])[C@]([H])(C(=O)N([H])[C@]([H])(C(=N[H])N([H])[H])C([H])([H])c1c([H])c([H])c([H])c([H])c1[H])C([H])([H])C(=N[H])N([H])[H])N([H])C(=O)[C@@]([H])(N([H])C(=O)[C@@]([H])(N([H])C(=O)OC([H])([H])c1c([H])c([H])c([H])c([H])c1[H])C([H])([H])C([H])([H])C([H])([H])N([H])C(=N[H])N([H])[H])C([H])([H])c1c([H])c([H])c([H])c([H])c1[H]


 82 84  0  0  0  0  0  0  0  0999 V2000
    6.1083   47.3132  129.6124 C   0  0  0  0  0  0  0  0  0  0  0  0
    6.8717   46.0726  129.7722 C   0  0  0  0  0  0  0  0  0  0  0  0
    7.2073   45.3659  128.7837 O   0  0  0  0  0  0  0  0  0  0  0  0
    7.3047   45.5557  131.0538 N   0  0  0  0  0  0  0  0  0  0  0  0
    6.9752   46.0761  131.9044 H   0  0  0  0  0  0  0  0  0  0  0  0
    8.1136   44.3882  131.1773 C   0  0  0  0  0  0  0  0  0  0  0  0
    8.6567   44.1360  132.5634 C   0  0  0  0  0  0  0  0  0  0  0  0
    8.4646   43.0186  133.0640 O   0  0  0  0  0  0  0  0  0  0  0  0
    9.3585   45.1648  133.2318 N   0  0  0  0  0  0  0  0  0  0  0  0
    9.4677   46.0839  132.7466 H   0  0  0  0  0  0  0  0  0  0  0  0
    9.9047   44.9567  134.5455 C   0  0  0  0  0  0  0  0  0  0  0  0
    9.5771   46.0437  135.4698 C   0  0  0  0  0  0  0  0  0  0  0  0
   10.0893   46.0971  136.8026 N   0  0  0  0  0  0  0  0  0  0  0  0
    8.7855   47.0284  135.1226 N   0  0  0  0  0  0  0  0  0  0  0  0
   10.2072   46.9400  137.3643 H   0  0  0  0  0  0  0  0  0  0  0  0
   10.3623   45.1438  137.1939 H   0  0  0  0  0  0  0  0  0  0  0  0
    8.3734   47.0426  134.1558 H   0  0  0  0  0  0  0  0  0  0  0  0
   11.3909   44.6239  134.4769 C   0  0  0  0  0  0  0  0  0  0  0  0
   11.8582   44.3822  133.1113 C   0  0  0  0  0  0  0  0  0  0  0  0
   11.8720   43.1476  132.5346 C   0  0  0  0  0  0  0  0  0  0  0  0
   12.3438   42.9927  131.2499 C   0  0  0  0  0  0  0  0  0  0  0  0
   12.8120   44.0806  130.5191 C   0  0  0  0  0  0  0  0  0  0  0  0
   12.7996   45.3238  131.0946 C   0  0  0  0  0  0  0  0  0  0  0  0
   12.3223   45.4550  132.3820 C   0  0  0  0  0  0  0  0  0  0  0  0
    9.1937   44.3508  130.1295 C   0  0  0  0  0  0  0  0  0  0  0  0
    9.2054   43.1029  129.3432 C   0  0  0  0  0  0  0  0  0  0  0  0
    8.9379   41.8750  130.0048 N   0  0  0  0  0  0  0  0  0  0  0  0
    9.4777   43.0570  128.0711 N   0  0  0  0  0  0  0  0  0  0  0  0
    8.0241   41.6604  130.4566 H   0  0  0  0  0  0  0  0  0  0  0  0
    9.6804   41.1089  130.0678 H   0  0  0  0  0  0  0  0  0  0  0  0
    9.6943   43.9534  127.6054 H   0  0  0  0  0  0  0  0  0  0  0  0
    7.1060   49.2876  128.2919 C   0  0  0  0  0  0  0  0  0  0  0  0
    6.8285   49.0291  127.0900 O   0  0  0  0  0  0  0  0  0  0  0  0
    6.7848   48.5451  129.4202 N   0  0  0  0  0  0  0  0  0  0  0  0
    7.1262   48.9929  130.3649 H   0  0  0  0  0  0  0  0  0  0  0  0
    7.8881   50.5909  128.4300 C   0  0  0  0  0  0  0  0  0  0  0  0
    7.4497   52.8447  127.3478 C   0  0  0  0  0  0  0  0  0  0  0  0
    7.5182   53.3932  128.5050 O   0  0  0  0  0  0  0  0  0  0  0  0
    7.6513   51.4628  127.3124 N   0  0  0  0  0  0  0  0  0  0  0  0
    7.6540   51.0155  126.3490 H   0  0  0  0  0  0  0  0  0  0  0  0
    7.1757   53.7433  126.2249 C   0  0  0  0  0  0  0  0  0  0  0  0
    5.8659   54.2617  126.1250 N   0  0  0  0  0  0  0  0  0  0  0  0
    5.0362   55.0613  126.8763 C   0  0  0  0  0  0  0  0  0  0  0  0
    5.2658   55.5988  127.9725 O   0  0  0  0  0  0  0  0  0  0  0  0
    5.4036   53.9000  125.1547 H   0  0  0  0  0  0  0  0  0  0  0  0
    3.7287   55.3509  126.3919 O   0  0  0  0  0  0  0  0  0  0  0  0
    3.0850   54.6056  125.3971 C   0  0  0  0  0  0  0  0  0  0  0  0
    2.1652   53.6239  126.0110 C   0  0  0  0  0  0  0  0  0  0  0  0
    1.1289   54.0465  126.8608 C   0  0  0  0  0  0  0  0  0  0  0  0
    0.2775   53.1560  127.4699 C   0  0  0  0  0  0  0  0  0  0  0  0
    0.4291   51.7789  127.2470 C   0  0  0  0  0  0  0  0  0  0  0  0
    1.4406   51.3779  126.4169 C   0  0  0  0  0  0  0  0  0  0  0  0
    2.2940   52.2623  125.8082 C   0  0  0  0  0  0  0  0  0  0  0  0
    8.3162   54.6077  125.8602 C   0  0  0  0  0  0  0  0  0  0  0  0
    8.8988   54.6293  124.4991 C   0  0  0  0  0  0  0  0  0  0  0  0
    8.3298   55.5987  123.5340 C   0  0  0  0  0  0  0  0  0  0  0  0
    7.1563   55.5180  122.8206 N   0  0  0  0  0  0  0  0  0  0  0  0
    6.9619   56.2840  122.0709 H   0  0  0  0  0  0  0  0  0  0  0  0
    6.3664   53.2297  122.5482 N   0  0  0  0  0  0  0  0  0  0  0  0
    6.0892   54.5681  122.8796 C   0  0  0  0  0  0  0  0  0  0  0  0
    4.9359   54.9615  123.2229 N   0  0  0  0  0  0  0  0  0  0  0  0
    5.6893   52.7112  121.9554 H   0  0  0  0  0  0  0  0  0  0  0  0
    7.2162   52.7505  122.8768 H   0  0  0  0  0  0  0  0  0  0  0  0
    4.1456   54.2315  123.2614 H   0  0  0  0  0  0  0  0  0  0  0  0
    7.6454   51.3042  129.7083 C   0  0  0  0  0  0  0  0  0  0  0  0
    8.4563   50.6848  130.7865 C   0  0  0  0  0  0  0  0  0  0  0  0
    8.5366   51.3552  131.9918 C   0  0  0  0  0  0  0  0  0  0  0  0
    9.3169   50.8104  132.9842 C   0  0  0  0  0  0  0  0  0  0  0  0
   10.0016   49.6164  132.7720 C   0  0  0  0  0  0  0  0  0  0  0  0
    9.9115   48.9473  131.5493 C   0  0  0  0  0  0  0  0  0  0  0  0
    9.1210   49.5176  130.5702 C   0  0  0  0  0  0  0  0  0  0  0  0
    4.8860   47.1264  128.8019 C   0  0  0  0  0  0  0  0  0  0  0  0
    3.5914   47.1825  129.5880 C   0  0  0  0  0  0  0  0  0  0  0  0
    3.0979   45.8636  130.0619 C   0  0  0  0  0  0  0  0  0  0  0  0
    1.7080   45.9352  130.3838 N   0  0  0  0  0  0  0  0  0  0  0  0
    1.4018   45.9134  131.3864 H   0  0  0  0  0  0  0  0  0  0  0  0
    0.6953   46.0413  129.3858 C   0  0  0  0  0  0  0  0  0  0  0  0
    0.4707   44.9542  128.5194 N   0  0  0  0  0  0  0  0  0  0  0  0
   -0.0055   47.0926  129.2726 N   0  0  0  0  0  0  0  0  0  0  0  0
    1.2476   44.6250  127.9058 H   0  0  0  0  0  0  0  0  0  0  0  0
   -0.4357   44.4637  128.4639 H   0  0  0  0  0  0  0  0  0  0  0  0
   -0.7474   47.1795  128.5441 H   0  0  0  0  0  0  0  0  0  0  0  0
 59 60  1  0  0  0
 60 61  2  0  0  0
 60 57  1  0  0  0
 57 56  1  0  0  0
 56 55  1  0  0  0
 55 54  1  0  0  0
 54 41  1  0  0  0
 41 42  1  0  0  0
 42 43  1  0  0  0
 43 44  2  0  0  0
 43 46  1  0  0  0
 46 47  1  0  0  0
 47 48  1  0  0  0
 48 49  2  0  0  0
 49 50  1  0  0  0
 50 51  2  0  0  0
 51 52  1  0  0  0
 52 53  2  0  0  0
 41 37  1  0  0  0
 37 38  2  0  0  0
 37 39  1  0  0  0
 39 36  1  0  0  0
 36 65  1  0  0  0
 65 66  1  0  0  0
 66 67  2  0  0  0
 67 68  1  0  0  0
 68 69  2  0  0  0
 69 70  1  0  0  0
 70 71  2  0  0  0
 36 32  1  0  0  0
 32 33  2  0  0  0
 32 34  1  0  0  0
 34  1  1  0  0  0
  1 72  1  0  0  0
 72 73  1  0  0  0
 73 74  1  0  0  0
 74 75  1  0  0  0
 75 77  1  0  0  0
 77 78  1  0  0  0
 77 79  2  0  0  0
  1  2  1  0  0  0
  2  3  2  0  0  0
  2  4  1  0  0  0
  4  6  1  0  0  0
  6 25  1  0  0  0
 25 26  1  0  0  0
 26 27  1  0  0  0
 26 28  2  0  0  0
  6  7  1  0  0  0
  7  8  2  0  0  0
  7  9  1  0  0  0
  9 11  1  0  0  0
 11 18  1  0  0  0
 18 19  1  0  0  0
 19 20  2  0  0  0
 20 21  1  0  0  0
 21 22  2  0  0  0
 22 23  1  0  0  0
 23 24  2  0  0  0
 11 12  1  0  0  0
 12 13  1  0  0  0
 12 14  2  0  0  0
 53 48  1  0  0  0
 71 66  1  0  0  0
 24 19  1  0  0  0
 59 62  1  0  0  0
 59 63  1  0  0  0
 61 64  1  0  0  0
 57 58  1  0  0  0
 42 45  1  0  0  0
 39 40  1  0  0  0
 34 35  1  0  0  0
 75 76  1  0  0  0
 78 80  1  0  0  0
 78 81  1  0  0  0
 79 82  1  0  0  0
  4  5  1  0  0  0
 27 29  1  0  0  0
 27 30  1  0  0  0
 28 31  1  0  0  0
  9 10  1  0  0  0
 13 15  1  0  0  0
 13 16  1  0  0  0
 14 17  1  0  0  0
M  END
> <minimizedAffinity>
8.48376

> <CNNscore>
0.5115084052

> <CNNaffinity>
8.3240365982

> <CNN_VS>
4.2578148842

> <CNNaffinity_variance>
0.5941591859

$$$$
[H]OC([H])([H])C([H])([H])N1C([H])([H])C([H])([H])N(C2([H])C([H])([H])C([H])([H])N(c3c([H])c([H])c(N([H])c4nc([H])c(Cl)c(N([H])c5c([H])c([H])c([H])c([H])c5S(=O)(=O)C([H])(C([H])([H])[H])C([H])([H])[H])n4)c(OC([H])([H])[H])c3[H])C([H])([H])C2([H])[H])C([H])([H])C1([H])[H]


 47 51  0  0  0  0  0  0  0  0999 V2000
    7.1846   49.1053  128.6710 C   0  0  0  0  0  0  0  0  0  0  0  0
    7.0122   50.2994  128.0176 C   0  0  0  0  0  0  0  0  0  0  0  0
    7.5514   51.4715  128.4879 C   0  0  0  0  0  0  0  0  0  0  0  0
    8.2747   51.3717  129.6534 C   0  0  0  0  0  0  0  0  0  0  0  0
    8.4701   50.1805  130.3432 C   0  0  0  0  0  0  0  0  0  0  0  0
    7.9226   49.0311  129.8515 C   0  0  0  0  0  0  0  0  0  0  0  0
    7.3955   52.7442  127.8857 N   0  0  0  0  0  0  0  0  0  0  0  0
    6.2801   53.5684  128.2514 C   0  0  0  0  0  0  0  0  0  0  0  0
    5.6441   54.2822  127.0930 C   0  0  0  0  0  0  0  0  0  0  0  0
    6.7142   54.8980  126.2139 C   0  0  0  0  0  0  0  0  0  0  0  0
    7.6948   53.9013  125.7166 C   0  0  0  0  0  0  0  0  0  0  0  0
    8.3401   53.1888  126.9125 C   0  0  0  0  0  0  0  0  0  0  0  0
    6.1122   55.7473  125.2571 N   0  0  0  0  0  0  0  0  0  0  0  0
    5.5738   55.1608  124.0849 C   0  0  0  0  0  0  0  0  0  0  0  0
    4.0401   55.1746  124.1245 C   0  0  0  0  0  0  0  0  0  0  0  0
    3.6028   56.5282  124.0941 N   0  0  0  0  0  0  0  0  0  0  0  0
    4.6350   57.4740  124.5455 C   0  0  0  0  0  0  0  0  0  0  0  0
    5.3013   56.8119  125.7532 C   0  0  0  0  0  0  0  0  0  0  0  0
    2.4153   56.7895  124.8604 C   0  0  0  0  0  0  0  0  0  0  0  0
    2.5273   56.5648  126.3267 C   0  0  0  0  0  0  0  0  0  0  0  0
    2.1271   55.3277  126.7715 O   0  0  0  0  0  0  0  0  0  0  0  0
    2.9453   54.7819  126.8957 H   0  0  0  0  0  0  0  0  0  0  0  0
    5.3809   47.4754  128.6509 C   0  0  0  0  0  0  0  0  0  0  0  0
    6.6146   47.9445  128.1497 O   0  0  0  0  0  0  0  0  0  0  0  0
    8.0719   47.7707  130.4759 N   0  0  0  0  0  0  0  0  0  0  0  0
    7.5586   47.6791  131.4468 H   0  0  0  0  0  0  0  0  0  0  0  0
    8.7401   46.6172  130.0988 C   0  0  0  0  0  0  0  0  0  0  0  0
    9.6333   46.7572  129.0462 N   0  0  0  0  0  0  0  0  0  0  0  0
   10.3381   45.7371  128.5671 C   0  0  0  0  0  0  0  0  0  0  0  0
   10.2119   44.4806  129.1017 C   0  0  0  0  0  0  0  0  0  0  0  0
   11.1708   43.1853  128.4251 Cl  0  0  0  0  0  0  0  0  0  0  0  0
    9.3210   44.2963  130.1679 C   0  0  0  0  0  0  0  0  0  0  0  0
    8.6586   45.3870  130.5770 N   0  0  0  0  0  0  0  0  0  0  0  0
    9.1927   42.9770  130.6310 N   0  0  0  0  0  0  0  0  0  0  0  0
    9.6398   42.2399  129.9866 H   0  0  0  0  0  0  0  0  0  0  0  0
    8.5887   42.4544  131.7786 C   0  0  0  0  0  0  0  0  0  0  0  0
    7.3542   41.8165  131.7733 C   0  0  0  0  0  0  0  0  0  0  0  0
    6.8120   41.3684  132.9586 C   0  0  0  0  0  0  0  0  0  0  0  0
    7.4419   41.5247  134.1643 C   0  0  0  0  0  0  0  0  0  0  0  0
    8.6862   42.1739  134.1345 C   0  0  0  0  0  0  0  0  0  0  0  0
    9.2734   42.6388  132.9930 C   0  0  0  0  0  0  0  0  0  0  0  0
   10.8070   43.4067  133.1006 S   0  0  0  0  0  0  0  0  0  0  0  0
   11.3479   43.1745  134.4876 O   0  0  0  0  0  0  0  0  0  0  0  0
   11.8121   43.0387  132.0750 O   0  0  0  0  0  0  0  0  0  0  0  0
   10.5980   45.1854  132.9405 C   0  0  0  0  0  0  0  0  0  0  0  0
   10.3186   45.6753  134.3742 C   0  0  0  0  0  0  0  0  0  0  0  0
   11.8422   45.8819  132.5061 C   0  0  0  0  0  0  0  0  0  0  0  0
 23 24  1  0  0  0
 24  1  1  0  0  0
  1  2  2  0  0  0
  2  3  1  0  0  0
  3  4  2  0  0  0
  4  5  1  0  0  0
  5  6  2  0  0  0
  6 25  1  0  0  0
 25 27  1  0  0  0
 27 28  2  0  0  0
 28 29  1  0  0  0
 29 30  2  0  0  0
 30 31  1  0  0  0
 30 32  1  0  0  0
 32 34  1  0  0  0
 34 36  1  0  0  0
 36 37  2  0  0  0
 37 38  1  0  0  0
 38 39  2  0  0  0
 39 40  1  0  0  0
 40 41  2  0  0  0
 41 42  1  0  0  0
 42 43  2  0  0  0
 42 44  2  0  0  0
 42 45  1  0  0  0
 45 46  1  0  0  0
 45 47  1  0  0  0
 32 33  2  0  0  0
  3  7  1  0  0  0
  7  8  1  0  0  0
  8  9  1  0  0  0
  9 10  1  0  0  0
 10 11  1  0  0  0
 11 12  1  0  0  0
 10 13  1  0  0  0
 13 14  1  0  0  0
 14 15  1  0  0  0
 15 16  1  0  0  0
 16 19  1  0  0  0
 19 20  1  0  0  0
 20 21  1  0  0  0
 16 17  1  0  0  0
 17 18  1  0  0  0
  6  1  1  0  0  0
 33 27  1  0  0  0
 12  7  1  0  0  0
 18 13  1  0  0  0
 41 36  1  0  0  0
 25 26  1  0  0  0
 34 35  1  0  0  0
 21 22  1  0  0  0
M  END
> <minimizedAffinity>
11.85828

> <CNNscore>
0.3953216672

> <CNNaffinity>
7.7933816910

> <CNN_VS>
3.0808925629

> <CNNaffinity_variance>
0.5729156733

$$$$
[H]OC([H])([H])C([H])([H])N1C([H])([H])C([H])([H])N(C2([H])C([H])([H])C([H])([H])N(c3c([H])c([H])c(N([H])c4nc([H])c(Cl)c(N([H])c5c([H])c([H])c([H])c([H])c5S(=O)(=O)C([H])(C([H])([H])[H])C([H])([H])[H])n4)c(OC([H])([H])[H])c3[H])C([H])([H])C2([H])[H])C([H])([H])C1([H])[H]


 47 51  0  0  0  0  0  0  0  0999 V2000
    8.2092   48.3799  129.1927 C   0  0  0  0  0  0  0  0  0  0  0  0
    7.5720   49.4223  128.5683 C   0  0  0  0  0  0  0  0  0  0  0  0
    7.8500   50.7325  128.8714 C   0  0  0  0  0  0  0  0  0  0  0  0
    8.8070   50.9324  129.8389 C   0  0  0  0  0  0  0  0  0  0  0  0
    9.4727   49.9021  130.4932 C   0  0  0  0  0  0  0  0  0  0  0  0
    9.1759   48.6096  130.1706 C   0  0  0  0  0  0  0  0  0  0  0  0
    7.2174   51.8593  128.2910 N   0  0  0  0  0  0  0  0  0  0  0  0
    6.9422   51.8696  126.8835 C   0  0  0  0  0  0  0  0  0  0  0  0
    7.2082   53.1906  126.2202 C   0  0  0  0  0  0  0  0  0  0  0  0
    6.6319   54.3153  127.0570 C   0  0  0  0  0  0  0  0  0  0  0  0
    7.1603   54.3305  128.4435 C   0  0  0  0  0  0  0  0  0  0  0  0
    6.8722   52.9777  129.1078 C   0  0  0  0  0  0  0  0  0  0  0  0
    6.6886   55.5261  126.3289 N   0  0  0  0  0  0  0  0  0  0  0  0
    7.8808   56.2894  126.3898 C   0  0  0  0  0  0  0  0  0  0  0  0
    8.6531   56.1990  125.0672 C   0  0  0  0  0  0  0  0  0  0  0  0
    7.8726   56.8144  124.0490 N   0  0  0  0  0  0  0  0  0  0  0  0
    6.4413   56.8755  124.3827 C   0  0  0  0  0  0  0  0  0  0  0  0
    6.1094   55.5269  125.0245 C   0  0  0  0  0  0  0  0  0  0  0  0
    7.9868   56.1992  122.7551 C   0  0  0  0  0  0  0  0  0  0  0  0
    8.6583   54.8721  122.7251 C   0  0  0  0  0  0  0  0  0  0  0  0
    7.8476   53.8013  122.4342 O   0  0  0  0  0  0  0  0  0  0  0  0
    7.9754   53.5890  121.4744 H   0  0  0  0  0  0  0  0  0  0  0  0
    6.9156   46.3593  129.5853 C   0  0  0  0  0  0  0  0  0  0  0  0
    7.8882   47.0679  128.8469 O   0  0  0  0  0  0  0  0  0  0  0  0
    9.8038   47.4948  130.7738 N   0  0  0  0  0  0  0  0  0  0  0  0
   10.4488   46.9127  130.0958 H   0  0  0  0  0  0  0  0  0  0  0  0
    9.7689   46.9906  132.0637 C   0  0  0  0  0  0  0  0  0  0  0  0
   10.0976   47.8887  133.0689 N   0  0  0  0  0  0  0  0  0  0  0  0
   10.1186   47.5468  134.3533 C   0  0  0  0  0  0  0  0  0  0  0  0
    9.8102   46.2702  134.7479 C   0  0  0  0  0  0  0  0  0  0  0  0
    9.8550   45.8898  136.4533 Cl  0  0  0  0  0  0  0  0  0  0  0  0
    9.4708   45.3321  133.7635 C   0  0  0  0  0  0  0  0  0  0  0  0
    9.4790   45.7760  132.4991 N   0  0  0  0  0  0  0  0  0  0  0  0
    9.2243   44.0293  134.2255 N   0  0  0  0  0  0  0  0  0  0  0  0
    9.7796   43.7639  135.1085 H   0  0  0  0  0  0  0  0  0  0  0  0
    8.3863   43.0197  133.7421 C   0  0  0  0  0  0  0  0  0  0  0  0
    7.1534   42.7113  134.3040 C   0  0  0  0  0  0  0  0  0  0  0  0
    6.4098   41.6709  133.7898 C   0  0  0  0  0  0  0  0  0  0  0  0
    6.8349   40.9112  132.7330 C   0  0  0  0  0  0  0  0  0  0  0  0
    8.0847   41.2483  132.1898 C   0  0  0  0  0  0  0  0  0  0  0  0
    8.8656   42.2668  132.6553 C   0  0  0  0  0  0  0  0  0  0  0  0
   10.3717   42.5768  131.8881 S   0  0  0  0  0  0  0  0  0  0  0  0
   10.9763   43.8006  132.5261 O   0  0  0  0  0  0  0  0  0  0  0  0
   11.3483   41.4620  131.8576 O   0  0  0  0  0  0  0  0  0  0  0  0
   10.0884   43.0040  130.1645 C   0  0  0  0  0  0  0  0  0  0  0  0
    8.6207   43.4694  130.1149 C   0  0  0  0  0  0  0  0  0  0  0  0
   10.9015   44.1680  129.7111 C   0  0  0  0  0  0  0  0  0  0  0  0
 23 24  1  0  0  0
 24  1  1  0  0  0
  1  2  2  0  0  0
  2  3  1  0  0  0
  3  4  2  0  0  0
  4  5  1  0  0  0
  5  6  2  0  0  0
  6 25  1  0  0  0
 25 27  1  0  0  0
 27 28  2  0  0  0
 28 29  1  0  0  0
 29 30  2  0  0  0
 30 31  1  0  0  0
 30 32  1  0  0  0
 32 34  1  0  0  0
 34 36  1  0  0  0
 36 37  2  0  0  0
 37 38  1  0  0  0
 38 39  2  0  0  0
 39 40  1  0  0  0
 40 41  2  0  0  0
 41 42  1  0  0  0
 42 43  2  0  0  0
 42 44  2  0  0  0
 42 45  1  0  0  0
 45 46  1  0  0  0
 45 47  1  0  0  0
 32 33  2  0  0  0
  3  7  1  0  0  0
  7  8  1  0  0  0
  8  9  1  0  0  0
  9 10  1  0  0  0
 10 11  1  0  0  0
 11 12  1  0  0  0
 10 13  1  0  0  0
 13 14  1  0  0  0
 14 15  1  0  0  0
 15 16  1  0  0  0
 16 19  1  0  0  0
 19 20  1  0  0  0
 20 21  1  0  0  0
 16 17  1  0  0  0
 17 18  1  0  0  0
  6  1  1  0  0  0
 33 27  1  0  0  0
 12  7  1  0  0  0
 18 13  1  0  0  0
 41 36  1  0  0  0
 25 26  1  0  0  0
 34 35  1  0  0  0
 21 22  1  0  0  0
M  END
> <minimizedAffinity>
16.57488

> <CNNscore>
0.3945459723

> <CNNaffinity>
7.7199912071

> <CNN_VS>
3.0458915234

> <CNNaffinity_variance>
0.2213163376

$$$$
[H]OC([H])([H])C([H])([H])N1C([H])([H])C([H])([H])N(C2([H])C([H])([H])C([H])([H])N(c3c([H])c([H])c(N([H])c4nc([H])c(Cl)c(N([H])c5c([H])c([H])c([H])c([H])c5S(=O)(=O)C([H])(C([H])([H])[H])C([H])([H])[H])n4)c(OC([H])([H])[H])c3[H])C([H])([H])C2([H])[H])C([H])([H])C1([H])[H]


 47 51  0  0  0  0  0  0  0  0999 V2000
    6.5762   49.9956  129.3771 C   0  0  0  0  0  0  0  0  0  0  0  0
    7.2355   48.9390  129.9528 C   0  0  0  0  0  0  0  0  0  0  0  0
    8.5953   48.9460  130.1443 C   0  0  0  0  0  0  0  0  0  0  0  0
    9.2527   50.0784  129.7234 C   0  0  0  0  0  0  0  0  0  0  0  0
    8.6190   51.1675  129.1359 C   0  0  0  0  0  0  0  0  0  0  0  0
    7.2663   51.1325  128.9588 C   0  0  0  0  0  0  0  0  0  0  0  0
    9.3487   47.8857  130.7055 N   0  0  0  0  0  0  0  0  0  0  0  0
    9.5377   46.6776  129.9559 C   0  0  0  0  0  0  0  0  0  0  0  0
    9.4268   45.4261  130.7789 C   0  0  0  0  0  0  0  0  0  0  0  0
   10.2091   45.5830  132.0675 C   0  0  0  0  0  0  0  0  0  0  0  0
    9.7724   46.7541  132.8674 C   0  0  0  0  0  0  0  0  0  0  0  0
    9.9006   48.0232  132.0146 C   0  0  0  0  0  0  0  0  0  0  0  0
   10.2850   44.3370  132.7317 N   0  0  0  0  0  0  0  0  0  0  0  0
    9.8476   44.2674  134.0776 C   0  0  0  0  0  0  0  0  0  0  0  0
    8.5118   43.5193  134.1778 C   0  0  0  0  0  0  0  0  0  0  0  0
    8.7246   42.1673  133.7886 N   0  0  0  0  0  0  0  0  0  0  0  0
    9.9209   41.9940  132.9503 C   0  0  0  0  0  0  0  0  0  0  0  0
    9.9209   43.1785  131.9818 C   0  0  0  0  0  0  0  0  0  0  0  0
    7.6206   41.5656  133.0924 C   0  0  0  0  0  0  0  0  0  0  0  0
    6.3814   41.3664  133.8910 C   0  0  0  0  0  0  0  0  0  0  0  0
    6.4433   40.3851  134.8510 O   0  0  0  0  0  0  0  0  0  0  0  0
    6.6106   40.8341  135.7189 H   0  0  0  0  0  0  0  0  0  0  0  0
    4.5234   48.6964  129.2877 C   0  0  0  0  0  0  0  0  0  0  0  0
    5.1938   49.9361  129.2057 O   0  0  0  0  0  0  0  0  0  0  0  0
    6.5312   52.1927  128.3788 N   0  0  0  0  0  0  0  0  0  0  0  0
    5.4458   52.1505  128.5652 H   0  0  0  0  0  0  0  0  0  0  0  0
    6.9142   53.2861  127.6192 C   0  0  0  0  0  0  0  0  0  0  0  0
    7.8021   54.1604  128.2296 N   0  0  0  0  0  0  0  0  0  0  0  0
    8.2498   55.2585  127.6291 C   0  0  0  0  0  0  0  0  0  0  0  0
    7.8479   55.5804  126.3581 C   0  0  0  0  0  0  0  0  0  0  0  0
    8.4779   57.0378  125.6273 Cl  0  0  0  0  0  0  0  0  0  0  0  0
    6.9524   54.7225  125.7050 C   0  0  0  0  0  0  0  0  0  0  0  0
    6.5611   53.6429  126.3958 N   0  0  0  0  0  0  0  0  0  0  0  0
    6.5331   55.1380  124.4310 N   0  0  0  0  0  0  0  0  0  0  0  0
    7.0677   55.9906  124.0490 H   0  0  0  0  0  0  0  0  0  0  0  0
    5.5470   54.6400  123.5739 C   0  0  0  0  0  0  0  0  0  0  0  0
    5.7620   53.5973  122.6807 C   0  0  0  0  0  0  0  0  0  0  0  0
    4.7449   53.1969  121.8411 C   0  0  0  0  0  0  0  0  0  0  0  0
    3.5098   53.7880  121.8433 C   0  0  0  0  0  0  0  0  0  0  0  0
    3.3266   54.8385  122.7563 C   0  0  0  0  0  0  0  0  0  0  0  0
    4.2948   55.2788  123.6122 C   0  0  0  0  0  0  0  0  0  0  0  0
    3.9302   56.5695  124.6865 S   0  0  0  0  0  0  0  0  0  0  0  0
    5.1975   57.3485  124.9257 O   0  0  0  0  0  0  0  0  0  0  0  0
    2.8228   57.4733  124.2938 O   0  0  0  0  0  0  0  0  0  0  0  0
    3.4497   55.9002  126.2847 C   0  0  0  0  0  0  0  0  0  0  0  0
    2.8757   57.1047  127.0547 C   0  0  0  0  0  0  0  0  0  0  0  0
    2.3406   54.9086  126.1919 C   0  0  0  0  0  0  0  0  0  0  0  0
 23 24  1  0  0  0
 24  1  1  0  0  0
  1  2  2  0  0  0
  2  3  1  0  0  0
  3  4  2  0  0  0
  4  5  1  0  0  0
  5  6  2  0  0  0
  6 25  1  0  0  0
 25 27  1  0  0  0
 27 28  2  0  0  0
 28 29  1  0  0  0
 29 30  2  0  0  0
 30 31  1  0  0  0
 30 32  1  0  0  0
 32 34  1  0  0  0
 34 36  1  0  0  0
 36 37  2  0  0  0
 37 38  1  0  0  0
 38 39  2  0  0  0
 39 40  1  0  0  0
 40 41  2  0  0  0
 41 42  1  0  0  0
 42 43  2  0  0  0
 42 44  2  0  0  0
 42 45  1  0  0  0
 45 46  1  0  0  0
 45 47  1  0  0  0
 32 33  2  0  0  0
  3  7  1  0  0  0
  7  8  1  0  0  0
  8  9  1  0  0  0
  9 10  1  0  0  0
 10 11  1  0  0  0
 11 12  1  0  0  0
 10 13  1  0  0  0
 13 14  1  0  0  0
 14 15  1  0  0  0
 15 16  1  0  0  0
 16 19  1  0  0  0
 19 20  1  0  0  0
 20 21  1  0  0  0
 16 17  1  0  0  0
 17 18  1  0  0  0
  6  1  1  0  0  0
 33 27  1  0  0  0
 12  7  1  0  0  0
 18 13  1  0  0  0
 41 36  1  0  0  0
 25 26  1  0  0  0
 34 35  1  0  0  0
 21 22  1  0  0  0
M  END
> <minimizedAffinity>
9.99078

> <CNNscore>
0.3539844155

> <CNNaffinity>
7.4897079468

> <CNN_VS>
2.6512398720

> <CNNaffinity_variance>
0.9017034769

$$$$
[H]OC([H])([H])C([H])([H])N1C([H])([H])C([H])([H])N(C2([H])C([H])([H])C([H])([H])N(c3c([H])c([H])c(N([H])c4nc([H])c(Cl)c(N([H])c5c([H])c([H])c([H])c([H])c5S(=O)(=O)C([H])(C([H])([H])[H])C([H])([H])[H])n4)c(OC([H])([H])[H])c3[H])C([H])([H])C2([H])[H])C([H])([H])C1([H])[H]


 47 51  0  0  0  0  0  0  0  0999 V2000
    6.9843   49.6645  129.3429 C   0  0  0  0  0  0  0  0  0  0  0  0
    7.6713   48.8365  130.1943 C   0  0  0  0  0  0  0  0  0  0  0  0
    8.5564   49.3215  131.1255 C   0  0  0  0  0  0  0  0  0  0  0  0
    8.7093   50.6881  131.1503 C   0  0  0  0  0  0  0  0  0  0  0  0
    8.0316   51.5579  130.3036 C   0  0  0  0  0  0  0  0  0  0  0  0
    7.1575   51.0471  129.3883 C   0  0  0  0  0  0  0  0  0  0  0  0
    9.3205   48.5307  132.0187 N   0  0  0  0  0  0  0  0  0  0  0  0
   10.6848   48.2225  131.7012 C   0  0  0  0  0  0  0  0  0  0  0  0
   11.0805   46.8093  132.0207 C   0  0  0  0  0  0  0  0  0  0  0  0
   10.5770   46.4299  133.3990 C   0  0  0  0  0  0  0  0  0  0  0  0
    9.1081   46.5873  133.5389 C   0  0  0  0  0  0  0  0  0  0  0  0
    8.7235   48.0375  133.2175 C   0  0  0  0  0  0  0  0  0  0  0  0
   11.1349   45.1889  133.7834 N   0  0  0  0  0  0  0  0  0  0  0  0
   10.2824   44.2268  134.3796 C   0  0  0  0  0  0  0  0  0  0  0  0
    9.9979   43.0747  133.4072 C   0  0  0  0  0  0  0  0  0  0  0  0
   11.2174   42.3845  133.1605 N   0  0  0  0  0  0  0  0  0  0  0  0
   12.4063   43.2058  133.4358 C   0  0  0  0  0  0  0  0  0  0  0  0
   12.0805   44.5984  132.8923 C   0  0  0  0  0  0  0  0  0  0  0  0
   11.3514   41.8674  131.8262 C   0  0  0  0  0  0  0  0  0  0  0  0
   10.4301   42.4452  130.8112 C   0  0  0  0  0  0  0  0  0  0  0  0
   10.9818   43.3838  129.9726 O   0  0  0  0  0  0  0  0  0  0  0  0
   11.2006   42.9244  129.1218 H   0  0  0  0  0  0  0  0  0  0  0  0
    5.6734   47.7788  128.5455 C   0  0  0  0  0  0  0  0  0  0  0  0
    6.0975   49.1191  128.4155 O   0  0  0  0  0  0  0  0  0  0  0  0
    6.4161   51.8500  128.4902 N   0  0  0  0  0  0  0  0  0  0  0  0
    5.3914   51.4924  128.2984 H   0  0  0  0  0  0  0  0  0  0  0  0
    6.7288   53.0110  127.8022 C   0  0  0  0  0  0  0  0  0  0  0  0
    7.7721   53.7590  128.3289 N   0  0  0  0  0  0  0  0  0  0  0  0
    8.1776   54.9017  127.7843 C   0  0  0  0  0  0  0  0  0  0  0  0
    7.5732   55.3995  126.6585 C   0  0  0  0  0  0  0  0  0  0  0  0
    8.1586   56.9061  125.9934 Cl  0  0  0  0  0  0  0  0  0  0  0  0
    6.5158   54.6735  126.0935 C   0  0  0  0  0  0  0  0  0  0  0  0
    6.1833   53.5351  126.7175 N   0  0  0  0  0  0  0  0  0  0  0  0
    5.9003   55.2652  124.9788 N   0  0  0  0  0  0  0  0  0  0  0  0
    6.0128   56.3346  124.9310 H   0  0  0  0  0  0  0  0  0  0  0  0
    5.1700   54.7110  123.9230 C   0  0  0  0  0  0  0  0  0  0  0  0
    3.7821   54.6451  123.9015 C   0  0  0  0  0  0  0  0  0  0  0  0
    3.1436   54.0427  122.8389 C   0  0  0  0  0  0  0  0  0  0  0  0
    3.8228   53.4948  121.7837 C   0  0  0  0  0  0  0  0  0  0  0  0
    5.2231   53.5773  121.8374 C   0  0  0  0  0  0  0  0  0  0  0  0
    5.9110   54.1612  122.8619 C   0  0  0  0  0  0  0  0  0  0  0  0
    7.6277   54.2015  122.7937 S   0  0  0  0  0  0  0  0  0  0  0  0
    8.1568   53.8238  124.1529 O   0  0  0  0  0  0  0  0  0  0  0  0
    8.2737   53.3915  121.7335 O   0  0  0  0  0  0  0  0  0  0  0  0
    8.1753   55.8887  122.4990 C   0  0  0  0  0  0  0  0  0  0  0  0
    9.6033   55.9408  123.0747 C   0  0  0  0  0  0  0  0  0  0  0  0
    8.3068   56.2143  121.0504 C   0  0  0  0  0  0  0  0  0  0  0  0
 23 24  1  0  0  0
 24  1  1  0  0  0
  1  2  2  0  0  0
  2  3  1  0  0  0
  3  4  2  0  0  0
  4  5  1  0  0  0
  5  6  2  0  0  0
  6 25  1  0  0  0
 25 27  1  0  0  0
 27 28  2  0  0  0
 28 29  1  0  0  0
 29 30  2  0  0  0
 30 31  1  0  0  0
 30 32  1  0  0  0
 32 34  1  0  0  0
 34 36  1  0  0  0
 36 37  2  0  0  0
 37 38  1  0  0  0
 38 39  2  0  0  0
 39 40  1  0  0  0
 40 41  2  0  0  0
 41 42  1  0  0  0
 42 43  2  0  0  0
 42 44  2  0  0  0
 42 45  1  0  0  0
 45 46  1  0  0  0
 45 47  1  0  0  0
 32 33  2  0  0  0
  3  7  1  0  0  0
  7  8  1  0  0  0
  8  9  1  0  0  0
  9 10  1  0  0  0
 10 11  1  0  0  0
 11 12  1  0  0  0
 10 13  1  0  0  0
 13 14  1  0  0  0
 14 15  1  0  0  0
 15 16  1  0  0  0
 16 19  1  0  0  0
 19 20  1  0  0  0
 20 21  1  0  0  0
 16 17  1  0  0  0
 17 18  1  0  0  0
  6  1  1  0  0  0
 33 27  1  0  0  0
 12  7  1  0  0  0
 18 13  1  0  0  0
 41 36  1  0  0  0
 25 26  1  0  0  0
 34 35  1  0  0  0
 21 22  1  0  0  0
M  END
> <minimizedAffinity>
1.68004

> <CNNscore>
0.3226378262

> <CNNaffinity>
7.5936737061

> <CNN_VS>
2.4500064850

> <CNNaffinity_variance>
0.8777378798

$$$$
[H]OC([H])([H])C([H])([H])N1C([H])([H])C([H])([H])N(C2([H])C([H])([H])C([H])([H])N(c3c([H])c([H])c(N([H])c4nc([H])c(Cl)c(N([H])c5c([H])c([H])c([H])c([H])c5S(=O)(=O)C([H])(C([H])([H])[H])C([H])([H])[H])n4)c(OC([H])([H])[H])c3[H])C([H])([H])C2([H])[H])C([H])([H])C1([H])[H]


 47 51  0  0  0  0  0  0  0  0999 V2000
    6.8978   49.6244  129.4068 C   0  0  0  0  0  0  0  0  0  0  0  0
    7.5000   48.7713  130.2969 C   0  0  0  0  0  0  0  0  0  0  0  0
    8.4881   49.1908  131.1532 C   0  0  0  0  0  0  0  0  0  0  0  0
    8.8344   50.5188  131.0621 C   0  0  0  0  0  0  0  0  0  0  0  0
    8.2475   51.4121  130.1731 C   0  0  0  0  0  0  0  0  0  0  0  0
    7.2674   50.9667  129.3343 C   0  0  0  0  0  0  0  0  0  0  0  0
    9.1739   48.3664  132.0790 N   0  0  0  0  0  0  0  0  0  0  0  0
   10.5841   48.1536  131.9279 C   0  0  0  0  0  0  0  0  0  0  0  0
   11.0185   46.7398  132.1891 C   0  0  0  0  0  0  0  0  0  0  0  0
   10.3612   46.2215  133.4526 C   0  0  0  0  0  0  0  0  0  0  0  0
    8.8799   46.2939  133.4025 C   0  0  0  0  0  0  0  0  0  0  0  0
    8.4546   47.7453  133.1438 C   0  0  0  0  0  0  0  0  0  0  0  0
   10.9372   44.9815  133.8133 N   0  0  0  0  0  0  0  0  0  0  0  0
   10.0862   43.9711  134.3257 C   0  0  0  0  0  0  0  0  0  0  0  0
    9.8850   42.8539  133.2937 C   0  0  0  0  0  0  0  0  0  0  0  0
   11.1357   42.2097  133.0804 N   0  0  0  0  0  0  0  0  0  0  0  0
   12.2840   43.0520  133.4487 C   0  0  0  0  0  0  0  0  0  0  0  0
   11.9430   44.4567  132.9473 C   0  0  0  0  0  0  0  0  0  0  0  0
   11.3507   41.7539  131.7344 C   0  0  0  0  0  0  0  0  0  0  0  0
   10.4949   42.3824  130.6924 C   0  0  0  0  0  0  0  0  0  0  0  0
   11.0573   43.4399  130.0187 O   0  0  0  0  0  0  0  0  0  0  0  0
   11.3921   43.0914  129.1531 H   0  0  0  0  0  0  0  0  0  0  0  0
    5.6202   47.7630  128.5052 C   0  0  0  0  0  0  0  0  0  0  0  0
    5.8995   49.1458  128.5592 O   0  0  0  0  0  0  0  0  0  0  0  0
    6.6056   51.7994  128.4018 N   0  0  0  0  0  0  0  0  0  0  0  0
    5.5451   51.5478  128.2382 H   0  0  0  0  0  0  0  0  0  0  0  0
    7.0338   52.8819  127.6509 C   0  0  0  0  0  0  0  0  0  0  0  0
    6.7035   54.1315  128.1557 N   0  0  0  0  0  0  0  0  0  0  0  0
    7.0366   55.2614  127.5398 C   0  0  0  0  0  0  0  0  0  0  0  0
    7.7337   55.2414  126.3591 C   0  0  0  0  0  0  0  0  0  0  0  0
    8.1413   56.7643  125.6044 Cl  0  0  0  0  0  0  0  0  0  0  0  0
    8.0885   53.9992  125.8156 C   0  0  0  0  0  0  0  0  0  0  0  0
    7.7061   52.9205  126.5128 N   0  0  0  0  0  0  0  0  0  0  0  0
    8.7478   54.0443  124.5768 N   0  0  0  0  0  0  0  0  0  0  0  0
    9.2366   53.1245  124.3056 H   0  0  0  0  0  0  0  0  0  0  0  0
    8.8798   55.0705  123.6363 C   0  0  0  0  0  0  0  0  0  0  0  0
    9.9120   56.0008  123.6555 C   0  0  0  0  0  0  0  0  0  0  0  0
    9.9422   57.0067  122.7137 C   0  0  0  0  0  0  0  0  0  0  0  0
    8.9862   57.1374  121.7422 C   0  0  0  0  0  0  0  0  0  0  0  0
    7.9574   56.1824  121.7519 C   0  0  0  0  0  0  0  0  0  0  0  0
    7.8742   55.1645  122.6578 C   0  0  0  0  0  0  0  0  0  0  0  0
    6.5639   54.0581  122.5469 S   0  0  0  0  0  0  0  0  0  0  0  0
    6.3811   53.6966  121.0957 O   0  0  0  0  0  0  0  0  0  0  0  0
    6.6453   52.8394  123.3868 O   0  0  0  0  0  0  0  0  0  0  0  0
    5.0445   54.8779  123.0496 C   0  0  0  0  0  0  0  0  0  0  0  0
    3.9542   53.7990  122.9061 C   0  0  0  0  0  0  0  0  0  0  0  0
    5.0427   55.2717  124.4872 C   0  0  0  0  0  0  0  0  0  0  0  0
 23 24  1  0  0  0
 24  1  1  0  0  0
  1  2  2  0  0  0
  2  3  1  0  0  0
  3  4  2  0  0  0
  4  5  1  0  0  0
  5  6  2  0  0  0
  6 25  1  0  0  0
 25 27  1  0  0  0
 27 28  2  0  0  0
 28 29  1  0  0  0
 29 30  2  0  0  0
 30 31  1  0  0  0
 30 32  1  0  0  0
 32 34  1  0  0  0
 34 36  1  0  0  0
 36 37  2  0  0  0
 37 38  1  0  0  0
 38 39  2  0  0  0
 39 40  1  0  0  0
 40 41  2  0  0  0
 41 42  1  0  0  0
 42 43  2  0  0  0
 42 44  2  0  0  0
 42 45  1  0  0  0
 45 46  1  0  0  0
 45 47  1  0  0  0
 32 33  2  0  0  0
  3  7  1  0  0  0
  7  8  1  0  0  0
  8  9  1  0  0  0
  9 10  1  0  0  0
 10 11  1  0  0  0
 11 12  1  0  0  0
 10 13  1  0  0  0
 13 14  1  0  0  0
 14 15  1  0  0  0
 15 16  1  0  0  0
 16 19  1  0  0  0
 19 20  1  0  0  0
 20 21  1  0  0  0
 16 17  1  0  0  0
 17 18  1  0  0  0
  6  1  1  0  0  0
 33 27  1  0  0  0
 12  7  1  0  0  0
 18 13  1  0  0  0
 41 36  1  0  0  0
 25 26  1  0  0  0
 34 35  1  0  0  0
 21 22  1  0  0  0
M  END
> <minimizedAffinity>
1.13652

> <CNNscore>
0.3141086996

> <CNNaffinity>
7.5845656395

> <CNN_VS>
2.3823781013

> <CNNaffinity_variance>
0.6169264317

$$$$
[H]OC([H])([H])C([H])([H])N1C([H])([H])C([H])([H])N(C2([H])C([H])([H])C([H])([H])N(c3c([H])c([H])c(N([H])c4nc([H])c(Cl)c(N([H])c5c([H])c([H])c([H])c([H])c5S(=O)(=O)C([H])(C([H])([H])[H])C([H])([H])[H])n4)c(OC([H])([H])[H])c3[H])C([H])([H])C2([H])[H])C([H])([H])C1([H])[H]


 47 51  0  0  0  0  0  0  0  0999 V2000
    8.3612   46.9195  129.0481 C   0  0  0  0  0  0  0  0  0  0  0  0
    7.6458   48.0490  128.7402 C   0  0  0  0  0  0  0  0  0  0  0  0
    8.1718   49.3084  128.8922 C   0  0  0  0  0  0  0  0  0  0  0  0
    9.4598   49.3646  129.3715 C   0  0  0  0  0  0  0  0  0  0  0  0
   10.2147   48.2428  129.6947 C   0  0  0  0  0  0  0  0  0  0  0  0
    9.6657   47.0039  129.5327 C   0  0  0  0  0  0  0  0  0  0  0  0
    7.4884   50.5195  128.6219 N   0  0  0  0  0  0  0  0  0  0  0  0
    6.9893   50.7708  127.3010 C   0  0  0  0  0  0  0  0  0  0  0  0
    7.1848   52.1851  126.8346 C   0  0  0  0  0  0  0  0  0  0  0  0
    6.7863   53.1517  127.9320 C   0  0  0  0  0  0  0  0  0  0  0  0
    7.5326   52.9284  129.1950 C   0  0  0  0  0  0  0  0  0  0  0  0
    7.3145   51.4827  129.6606 C   0  0  0  0  0  0  0  0  0  0  0  0
    6.7615   54.4689  127.4186 N   0  0  0  0  0  0  0  0  0  0  0  0
    7.9931   55.1535  127.2698 C   0  0  0  0  0  0  0  0  0  0  0  0
    8.3785   55.2648  125.7889 C   0  0  0  0  0  0  0  0  0  0  0  0
    7.4182   56.0871  125.1361 N   0  0  0  0  0  0  0  0  0  0  0  0
    6.1370   56.1535  125.8558 C   0  0  0  0  0  0  0  0  0  0  0  0
    5.8622   54.7288  126.3412 C   0  0  0  0  0  0  0  0  0  0  0  0
    7.1305   55.7077  123.7800 C   0  0  0  0  0  0  0  0  0  0  0  0
    7.9172   54.5637  123.2459 C   0  0  0  0  0  0  0  0  0  0  0  0
    7.3122   53.8404  122.2462 O   0  0  0  0  0  0  0  0  0  0  0  0
    7.6906   54.1558  121.3859 H   0  0  0  0  0  0  0  0  0  0  0  0
    8.5928   44.5229  128.7123 C   0  0  0  0  0  0  0  0  0  0  0  0
    7.7785   45.6647  128.8752 O   0  0  0  0  0  0  0  0  0  0  0  0
   10.3557   45.8043  129.8257 N   0  0  0  0  0  0  0  0  0  0  0  0
   10.4550   45.1152  128.9714 H   0  0  0  0  0  0  0  0  0  0  0  0
   10.9400   45.3251  130.9867 C   0  0  0  0  0  0  0  0  0  0  0  0
   12.2820   45.6345  131.1559 N   0  0  0  0  0  0  0  0  0  0  0  0
   12.9793   45.2340  132.2143 C   0  0  0  0  0  0  0  0  0  0  0  0
   12.3929   44.4857  133.2026 C   0  0  0  0  0  0  0  0  0  0  0  0
   13.3677   43.9952  134.5680 Cl  0  0  0  0  0  0  0  0  0  0  0  0
   11.0379   44.1526  133.0711 C   0  0  0  0  0  0  0  0  0  0  0  0
   10.4248   44.6041  131.9683 N   0  0  0  0  0  0  0  0  0  0  0  0
   10.5123   43.3356  134.0848 N   0  0  0  0  0  0  0  0  0  0  0  0
   11.1417   43.2544  134.9541 H   0  0  0  0  0  0  0  0  0  0  0  0
    9.3184   42.6119  134.1634 C   0  0  0  0  0  0  0  0  0  0  0  0
    9.2665   41.2315  134.3147 C   0  0  0  0  0  0  0  0  0  0  0  0
    8.0453   40.5929  134.3404 C   0  0  0  0  0  0  0  0  0  0  0  0
    6.8582   41.2647  134.2210 C   0  0  0  0  0  0  0  0  0  0  0  0
    6.9463   42.6574  134.0684 C   0  0  0  0  0  0  0  0  0  0  0  0
    8.1252   43.3451  134.0360 C   0  0  0  0  0  0  0  0  0  0  0  0
    8.0862   45.0534  133.8540 S   0  0  0  0  0  0  0  0  0  0  0  0
    8.1016   45.3654  132.3801 O   0  0  0  0  0  0  0  0  0  0  0  0
    6.9822   45.7729  134.5330 O   0  0  0  0  0  0  0  0  0  0  0  0
    9.5959   45.7614  134.5272 C   0  0  0  0  0  0  0  0  0  0  0  0
    9.6824   47.1647  133.8974 C   0  0  0  0  0  0  0  0  0  0  0  0
    9.5318   45.9782  136.0005 C   0  0  0  0  0  0  0  0  0  0  0  0
 23 24  1  0  0  0
 24  1  1  0  0  0
  1  2  2  0  0  0
  2  3  1  0  0  0
  3  4  2  0  0  0
  4  5  1  0  0  0
  5  6  2  0  0  0
  6 25  1  0  0  0
 25 27  1  0  0  0
 27 28  2  0  0  0
 28 29  1  0  0  0
 29 30  2  0  0  0
 30 31  1  0  0  0
 30 32  1  0  0  0
 32 34  1  0  0  0
 34 36  1  0  0  0
 36 37  2  0  0  0
 37 38  1  0  0  0
 38 39  2  0  0  0
 39 40  1  0  0  0
 40 41  2  0  0  0
 41 42  1  0  0  0
 42 43  2  0  0  0
 42 44  2  0  0  0
 42 45  1  0  0  0
 45 46  1  0  0  0
 45 47  1  0  0  0
 32 33  2  0  0  0
  3  7  1  0  0  0
  7  8  1  0  0  0
  8  9  1  0  0  0
  9 10  1  0  0  0
 10 11  1  0  0  0
 11 12  1  0  0  0
 10 13  1  0  0  0
 13 14  1  0  0  0
 14 15  1  0  0  0
 15 16  1  0  0  0
 16 19  1  0  0  0
 19 20  1  0  0  0
 20 21  1  0  0  0
 16 17  1  0  0  0
 17 18  1  0  0  0
  6  1  1  0  0  0
 33 27  1  0  0  0
 12  7  1  0  0  0
 18 13  1  0  0  0
 41 36  1  0  0  0
 25 26  1  0  0  0
 34 35  1  0  0  0
 21 22  1  0  0  0
M  END
> <minimizedAffinity>
18.55528

> <CNNscore>
0.3041214943

> <CNNaffinity>
7.4903020859

> <CNN_VS>
2.2779619694

> <CNNaffinity_variance>
0.3532772064

$$$$
[H]OC([H])([H])C([H])([H])N1C([H])([H])C([H])([H])N(C2([H])C([H])([H])C([H])([H])N(c3c([H])c([H])c(N([H])c4nc([H])c(Cl)c(N([H])c5c([H])c([H])c([H])c([H])c5S(=O)(=O)C([H])(C([H])([H])[H])C([H])([H])[H])n4)c(OC([H])([H])[H])c3[H])C([H])([H])C2([H])[H])C([H])([H])C1([H])[H]


 47 51  0  0  0  0  0  0  0  0999 V2000
    7.8246   50.3694  129.8817 C   0  0  0  0  0  0  0  0  0  0  0  0
    8.3414   49.1047  130.0082 C   0  0  0  0  0  0  0  0  0  0  0  0
    8.0702   48.1126  129.0983 C   0  0  0  0  0  0  0  0  0  0  0  0
    7.2492   48.4676  128.0535 C   0  0  0  0  0  0  0  0  0  0  0  0
    6.7067   49.7375  127.8927 C   0  0  0  0  0  0  0  0  0  0  0  0
    6.9943   50.7036  128.8127 C   0  0  0  0  0  0  0  0  0  0  0  0
    8.5435   46.7795  129.1749 N   0  0  0  0  0  0  0  0  0  0  0  0
    7.9228   45.8592  130.0831 C   0  0  0  0  0  0  0  0  0  0  0  0
    8.8923   44.9655  130.8022 C   0  0  0  0  0  0  0  0  0  0  0  0
    9.9078   44.4100  129.8238 C   0  0  0  0  0  0  0  0  0  0  0  0
   10.6447   45.4713  129.0940 C   0  0  0  0  0  0  0  0  0  0  0  0
    9.6401   46.3684  128.3591 C   0  0  0  0  0  0  0  0  0  0  0  0
   10.6763   43.4056  130.4561 N   0  0  0  0  0  0  0  0  0  0  0  0
   12.0875   43.5333  130.4424 C   0  0  0  0  0  0  0  0  0  0  0  0
   12.6128   43.9168  131.8319 C   0  0  0  0  0  0  0  0  0  0  0  0
   12.3485   42.8403  132.7242 N   0  0  0  0  0  0  0  0  0  0  0  0
   11.2613   41.9651  132.2597 C   0  0  0  0  0  0  0  0  0  0  0  0
   10.1889   42.9013  131.6992 C   0  0  0  0  0  0  0  0  0  0  0  0
   12.0331   43.2420  134.0676 C   0  0  0  0  0  0  0  0  0  0  0  0
   11.7985   44.6968  134.2713 C   0  0  0  0  0  0  0  0  0  0  0  0
   10.4815   45.0854  134.3262 O   0  0  0  0  0  0  0  0  0  0  0  0
   10.2451   45.1857  135.2837 H   0  0  0  0  0  0  0  0  0  0  0  0
    9.0220   51.0388  131.8887 C   0  0  0  0  0  0  0  0  0  0  0  0
    8.1319   51.3394  130.8349 O   0  0  0  0  0  0  0  0  0  0  0  0
    6.4977   52.0257  128.7318 N   0  0  0  0  0  0  0  0  0  0  0  0
    5.6656   52.2431  129.4209 H   0  0  0  0  0  0  0  0  0  0  0  0
    6.8602   53.1111  127.9510 C   0  0  0  0  0  0  0  0  0  0  0  0
    7.9907   53.7997  128.3672 N   0  0  0  0  0  0  0  0  0  0  0  0
    8.4529   54.8680  127.7252 C   0  0  0  0  0  0  0  0  0  0  0  0
    7.8226   55.3439  126.6042 C   0  0  0  0  0  0  0  0  0  0  0  0
    8.4857   56.7514  125.8078 Cl  0  0  0  0  0  0  0  0  0  0  0  0
    6.6775   54.6761  126.1493 C   0  0  0  0  0  0  0  0  0  0  0  0
    6.2933   53.6109  126.8658 N   0  0  0  0  0  0  0  0  0  0  0  0
    6.0445   55.2470  125.0335 N   0  0  0  0  0  0  0  0  0  0  0  0
    6.1995   56.3077  124.9356 H   0  0  0  0  0  0  0  0  0  0  0  0
    5.2514   54.6817  124.0303 C   0  0  0  0  0  0  0  0  0  0  0  0
    3.8655   54.6076  124.0984 C   0  0  0  0  0  0  0  0  0  0  0  0
    3.1638   53.9945  123.0827 C   0  0  0  0  0  0  0  0  0  0  0  0
    3.7773   53.4435  121.9895 C   0  0  0  0  0  0  0  0  0  0  0  0
    5.1776   53.5344  121.9527 C   0  0  0  0  0  0  0  0  0  0  0  0
    5.9263   54.1291  122.9272 C   0  0  0  0  0  0  0  0  0  0  0  0
    7.6347   54.1788  122.7488 S   0  0  0  0  0  0  0  0  0  0  0  0
    8.2522   53.8137  124.0738 O   0  0  0  0  0  0  0  0  0  0  0  0
    8.2164   53.3651  121.6547 O   0  0  0  0  0  0  0  0  0  0  0  0
    8.1518   55.8670  122.4083 C   0  0  0  0  0  0  0  0  0  0  0  0
    9.6142   55.9307  122.8886 C   0  0  0  0  0  0  0  0  0  0  0  0
    8.1859   56.1839  120.9523 C   0  0  0  0  0  0  0  0  0  0  0  0
 23 24  1  0  0  0
 24  1  1  0  0  0
  1  2  2  0  0  0
  2  3  1  0  0  0
  3  4  2  0  0  0
  4  5  1  0  0  0
  5  6  2  0  0  0
  6 25  1  0  0  0
 25 27  1  0  0  0
 27 28  2  0  0  0
 28 29  1  0  0  0
 29 30  2  0  0  0
 30 31  1  0  0  0
 30 32  1  0  0  0
 32 34  1  0  0  0
 34 36  1  0  0  0
 36 37  2  0  0  0
 37 38  1  0  0  0
 38 39  2  0  0  0
 39 40  1  0  0  0
 40 41  2  0  0  0
 41 42  1  0  0  0
 42 43  2  0  0  0
 42 44  2  0  0  0
 42 45  1  0  0  0
 45 46  1  0  0  0
 45 47  1  0  0  0
 32 33  2  0  0  0
  3  7  1  0  0  0
  7  8  1  0  0  0
  8  9  1  0  0  0
  9 10  1  0  0  0
 10 11  1  0  0  0
 11 12  1  0  0  0
 10 13  1  0  0  0
 13 14  1  0  0  0
 14 15  1  0  0  0
 15 16  1  0  0  0
 16 19  1  0  0  0
 19 20  1  0  0  0
 20 21  1  0  0  0
 16 17  1  0  0  0
 17 18  1  0  0  0
  6  1  1  0  0  0
 33 27  1  0  0  0
 12  7  1  0  0  0
 18 13  1  0  0  0
 41 36  1  0  0  0
 25 26  1  0  0  0
 34 35  1  0  0  0
 21 22  1  0  0  0
M  END
> <minimizedAffinity>
2.70523

> <CNNscore>
0.3040105700

> <CNNaffinity>
7.5556931496

> <CNN_VS>
2.2970106602

> <CNNaffinity_variance>
0.7601355314

$$$$
[H]OC([H])([H])C([H])([H])N1C([H])([H])C([H])([H])N(C2([H])C([H])([H])C([H])([H])N(c3c([H])c([H])c(N([H])c4nc([H])c(Cl)c(N([H])c5c([H])c([H])c([H])c([H])c5S(=O)(=O)C([H])(C([H])([H])[H])C([H])([H])[H])n4)c(OC([H])([H])[H])c3[H])C([H])([H])C2([H])[H])C([H])([H])C1([H])[H]


 47 51  0  0  0  0  0  0  0  0999 V2000
    6.8721   49.0743  129.7314 C   0  0  0  0  0  0  0  0  0  0  0  0
    6.8967   50.0926  128.8122 C   0  0  0  0  0  0  0  0  0  0  0  0
    7.5298   51.2851  129.0631 C   0  0  0  0  0  0  0  0  0  0  0  0
    8.1370   51.3927  130.2924 C   0  0  0  0  0  0  0  0  0  0  0  0
    8.1324   50.3835  131.2487 C   0  0  0  0  0  0  0  0  0  0  0  0
    7.4956   49.2088  130.9711 C   0  0  0  0  0  0  0  0  0  0  0  0
    7.5758   52.3900  128.1776 N   0  0  0  0  0  0  0  0  0  0  0  0
    7.1067   53.6712  128.6196 C   0  0  0  0  0  0  0  0  0  0  0  0
    6.3141   54.4196  127.5865 C   0  0  0  0  0  0  0  0  0  0  0  0
    7.0183   54.3535  126.2459 C   0  0  0  0  0  0  0  0  0  0  0  0
    7.2574   52.9620  125.7892 C   0  0  0  0  0  0  0  0  0  0  0  0
    8.0749   52.2159  126.8519 C   0  0  0  0  0  0  0  0  0  0  0  0
    6.3908   55.2351  125.3359 N   0  0  0  0  0  0  0  0  0  0  0  0
    6.9108   55.3222  124.0206 C   0  0  0  0  0  0  0  0  0  0  0  0
    5.9728   54.6374  123.0181 C   0  0  0  0  0  0  0  0  0  0  0  0
    4.7496   55.3634  122.9801 N   0  0  0  0  0  0  0  0  0  0  0  0
    4.5233   56.1681  124.1905 C   0  0  0  0  0  0  0  0  0  0  0  0
    4.9647   55.2865  125.3605 C   0  0  0  0  0  0  0  0  0  0  0  0
    3.5802   54.5528  122.7775 C   0  0  0  0  0  0  0  0  0  0  0  0
    3.5361   53.7848  121.5043 C   0  0  0  0  0  0  0  0  0  0  0  0
    3.8689   52.4549  121.5997 O   0  0  0  0  0  0  0  0  0  0  0  0
    3.0212   51.9417  121.6273 H   0  0  0  0  0  0  0  0  0  0  0  0
    5.5860   47.7247  128.1710 C   0  0  0  0  0  0  0  0  0  0  0  0
    6.2142   47.8837  129.4253 O   0  0  0  0  0  0  0  0  0  0  0  0
    7.4427   48.1217  131.8745 N   0  0  0  0  0  0  0  0  0  0  0  0
    6.4322   47.8868  132.2466 H   0  0  0  0  0  0  0  0  0  0  0  0
    8.4221   47.2845  132.3836 C   0  0  0  0  0  0  0  0  0  0  0  0
    8.8613   47.5835  133.6653 N   0  0  0  0  0  0  0  0  0  0  0  0
    9.8040   46.8764  134.2804 C   0  0  0  0  0  0  0  0  0  0  0  0
   10.3931   45.8018  133.6651 C   0  0  0  0  0  0  0  0  0  0  0  0
   11.6241   44.9146  134.5326 Cl  0  0  0  0  0  0  0  0  0  0  0  0
    9.9768   45.4648  132.3699 C   0  0  0  0  0  0  0  0  0  0  0  0
    9.0214   46.2395  131.8382 N   0  0  0  0  0  0  0  0  0  0  0  0
   10.6594   44.3932  131.7723 N   0  0  0  0  0  0  0  0  0  0  0  0
   10.3979   43.4284  132.1716 H   0  0  0  0  0  0  0  0  0  0  0  0
   11.6154   44.3591  130.7525 C   0  0  0  0  0  0  0  0  0  0  0  0
   12.9631   44.6307  130.9548 C   0  0  0  0  0  0  0  0  0  0  0  0
   13.8308   44.6162  129.8839 C   0  0  0  0  0  0  0  0  0  0  0  0
   13.4219   44.3431  128.6060 C   0  0  0  0  0  0  0  0  0  0  0  0
   12.0545   44.0745  128.4364 C   0  0  0  0  0  0  0  0  0  0  0  0
   11.1480   44.0738  129.4572 C   0  0  0  0  0  0  0  0  0  0  0  0
    9.5036   43.7171  129.1083 S   0  0  0  0  0  0  0  0  0  0  0  0
    8.6767   44.9199  129.4818 O   0  0  0  0  0  0  0  0  0  0  0  0
    9.1942   43.2735  127.7281 O   0  0  0  0  0  0  0  0  0  0  0  0
    8.9430   42.3795  130.1712 C   0  0  0  0  0  0  0  0  0  0  0  0
   10.2188   41.8827  130.8776 C   0  0  0  0  0  0  0  0  0  0  0  0
    8.0291   42.8400  131.2550 C   0  0  0  0  0  0  0  0  0  0  0  0
 23 24  1  0  0  0
 24  1  1  0  0  0
  1  2  2  0  0  0
  2  3  1  0  0  0
  3  4  2  0  0  0
  4  5  1  0  0  0
  5  6  2  0  0  0
  6 25  1  0  0  0
 25 27  1  0  0  0
 27 28  2  0  0  0
 28 29  1  0  0  0
 29 30  2  0  0  0
 30 31  1  0  0  0
 30 32  1  0  0  0
 32 34  1  0  0  0
 34 36  1  0  0  0
 36 37  2  0  0  0
 37 38  1  0  0  0
 38 39  2  0  0  0
 39 40  1  0  0  0
 40 41  2  0  0  0
 41 42  1  0  0  0
 42 43  2  0  0  0
 42 44  2  0  0  0
 42 45  1  0  0  0
 45 46  1  0  0  0
 45 47  1  0  0  0
 32 33  2  0  0  0
  3  7  1  0  0  0
  7  8  1  0  0  0
  8  9  1  0  0  0
  9 10  1  0  0  0
 10 11  1  0  0  0
 11 12  1  0  0  0
 10 13  1  0  0  0
 13 14  1  0  0  0
 14 15  1  0  0  0
 15 16  1  0  0  0
 16 19  1  0  0  0
 19 20  1  0  0  0
 20 21  1  0  0  0
 16 17  1  0  0  0
 17 18  1  0  0  0
  6  1  1  0  0  0
 33 27  1  0  0  0
 12  7  1  0  0  0
 18 13  1  0  0  0
 41 36  1  0  0  0
 25 26  1  0  0  0
 34 35  1  0  0  0
 21 22  1  0  0  0
M  END
> <minimizedAffinity>
10.04813

> <CNNscore>
0.2965957522

> <CNNaffinity>
7.7322402000

> <CNN_VS>
2.2933495045

> <CNNaffinity_variance>
0.7653747201

$$$$
[H]OC([H])([H])C([H])([H])N1C([H])([H])C([H])([H])N(C2([H])C([H])([H])C([H])([H])N(c3c([H])c([H])c(N([H])c4nc([H])c(Cl)c(N([H])c5c([H])c([H])c([H])c([H])c5S(=O)(=O)C([H])(C([H])([H])[H])C([H])([H])[H])n4)c(OC([H])([H])[H])c3[H])C([H])([H])C2([H])[H])C([H])([H])C1([H])[H]


 47 51  0  0  0  0  0  0  0  0999 V2000
    7.6414   48.8645  129.9784 C   0  0  0  0  0  0  0  0  0  0  0  0
    7.9716   50.0921  129.4624 C   0  0  0  0  0  0  0  0  0  0  0  0
    7.1294   50.7803  128.6241 C   0  0  0  0  0  0  0  0  0  0  0  0
    5.9354   50.1614  128.3360 C   0  0  0  0  0  0  0  0  0  0  0  0
    5.5669   48.9188  128.8391 C   0  0  0  0  0  0  0  0  0  0  0  0
    6.4242   48.2584  129.6706 C   0  0  0  0  0  0  0  0  0  0  0  0
    7.4100   52.0362  128.0317 N   0  0  0  0  0  0  0  0  0  0  0  0
    6.9255   53.2352  128.6518 C   0  0  0  0  0  0  0  0  0  0  0  0
    6.3983   54.2530  127.6813 C   0  0  0  0  0  0  0  0  0  0  0  0
    7.3564   54.4023  126.5164 C   0  0  0  0  0  0  0  0  0  0  0  0
    7.6135   53.1204  125.8144 C   0  0  0  0  0  0  0  0  0  0  0  0
    8.1592   52.0964  126.8184 C   0  0  0  0  0  0  0  0  0  0  0  0
    6.9722   55.5087  125.7243 N   0  0  0  0  0  0  0  0  0  0  0  0
    6.6371   55.2772  124.3671 C   0  0  0  0  0  0  0  0  0  0  0  0
    5.1238   55.4074  124.1503 C   0  0  0  0  0  0  0  0  0  0  0  0
    4.7500   56.7579  124.3974 N   0  0  0  0  0  0  0  0  0  0  0  0
    5.7160   57.4739  125.2448 C   0  0  0  0  0  0  0  0  0  0  0  0
    6.1240   56.4808  126.3348 C   0  0  0  0  0  0  0  0  0  0  0  0
    3.4524   56.9186  124.9942 C   0  0  0  0  0  0  0  0  0  0  0  0
    2.7443   55.6611  125.3550 C   0  0  0  0  0  0  0  0  0  0  0  0
    2.5829   55.4341  126.7007 O   0  0  0  0  0  0  0  0  0  0  0  0
    1.6590   55.7064  126.9353 H   0  0  0  0  0  0  0  0  0  0  0  0
    9.0326   48.8634  131.9722 C   0  0  0  0  0  0  0  0  0  0  0  0
    8.5343   48.2085  130.8250 O   0  0  0  0  0  0  0  0  0  0  0  0
    6.1366   46.9953  130.2387 N   0  0  0  0  0  0  0  0  0  0  0  0
    5.0801   46.6909  130.1622 H   0  0  0  0  0  0  0  0  0  0  0  0
    6.9325   46.0562  130.8742 C   0  0  0  0  0  0  0  0  0  0  0  0
    6.7051   45.8972  132.2337 N   0  0  0  0  0  0  0  0  0  0  0  0
    7.3983   45.0420  132.9786 C   0  0  0  0  0  0  0  0  0  0  0  0
    8.3847   44.2655  132.4266 C   0  0  0  0  0  0  0  0  0  0  0  0
    9.2553   43.1600  133.4634 Cl  0  0  0  0  0  0  0  0  0  0  0  0
    8.6453   44.3942  131.0555 C   0  0  0  0  0  0  0  0  0  0  0  0
    7.8919   45.2833  130.3938 N   0  0  0  0  0  0  0  0  0  0  0  0
    9.7057   43.6167  130.5633 N   0  0  0  0  0  0  0  0  0  0  0  0
    9.5683   42.5566  130.6888 H   0  0  0  0  0  0  0  0  0  0  0  0
   10.9047   43.9763  129.9402 C   0  0  0  0  0  0  0  0  0  0  0  0
   10.9773   44.4702  128.6433 C   0  0  0  0  0  0  0  0  0  0  0  0
   12.2064   44.7600  128.0909 C   0  0  0  0  0  0  0  0  0  0  0  0
   13.3818   44.5808  128.7700 C   0  0  0  0  0  0  0  0  0  0  0  0
   13.2730   44.0795  130.0767 C   0  0  0  0  0  0  0  0  0  0  0  0
   12.0853   43.7747  130.6770 C   0  0  0  0  0  0  0  0  0  0  0  0
   12.0977   43.1775  132.2883 S   0  0  0  0  0  0  0  0  0  0  0  0
   11.1168   42.0367  132.3698 O   0  0  0  0  0  0  0  0  0  0  0  0
   13.4135   42.7813  132.8442 O   0  0  0  0  0  0  0  0  0  0  0  0
   11.4772   44.4462  133.4013 C   0  0  0  0  0  0  0  0  0  0  0  0
   12.2019   44.1824  134.7350 C   0  0  0  0  0  0  0  0  0  0  0  0
   11.8679   45.8245  132.9899 C   0  0  0  0  0  0  0  0  0  0  0  0
 23 24  1  0  0  0
 24  1  1  0  0  0
  1  2  2  0  0  0
  2  3  1  0  0  0
  3  4  2  0  0  0
  4  5  1  0  0  0
  5  6  2  0  0  0
  6 25  1  0  0  0
 25 27  1  0  0  0
 27 28  2  0  0  0
 28 29  1  0  0  0
 29 30  2  0  0  0
 30 31  1  0  0  0
 30 32  1  0  0  0
 32 34  1  0  0  0
 34 36  1  0  0  0
 36 37  2  0  0  0
 37 38  1  0  0  0
 38 39  2  0  0  0
 39 40  1  0  0  0
 40 41  2  0  0  0
 41 42  1  0  0  0
 42 43  2  0  0  0
 42 44  2  0  0  0
 42 45  1  0  0  0
 45 46  1  0  0  0
 45 47  1  0  0  0
 32 33  2  0  0  0
  3  7  1  0  0  0
  7  8  1  0  0  0
  8  9  1  0  0  0
  9 10  1  0  0  0
 10 11  1  0  0  0
 11 12  1  0  0  0
 10 13  1  0  0  0
 13 14  1  0  0  0
 14 15  1  0  0  0
 15 16  1  0  0  0
 16 19  1  0  0  0
 19 20  1  0  0  0
 20 21  1  0  0  0
 16 17  1  0  0  0
 17 18  1  0  0  0
  6  1  1  0  0  0
 33 27  1  0  0  0
 12  7  1  0  0  0
 18 13  1  0  0  0
 41 36  1  0  0  0
 25 26  1  0  0  0
 34 35  1  0  0  0
 21 22  1  0  0  0
M  END
> <minimizedAffinity>
6.85006

> <CNNscore>
0.2931869626

> <CNNaffinity>
7.8017187119

> <CNN_VS>
2.2873620987

> <CNNaffinity_variance>
0.3657571077

$$$$
[H]c1nc2c([H])c([H])c([H])c([H])n2c1C(=O)N([H])c1c([H])c(N([H])C(=O)c2c([H])c([H])c(C([H])([H])N3C([H])([H])C([H])([H])N(C([H])([H])[H])C([H])([H])C3([H])[H])c(C(F)(F)F)c2[H])c([H])c([H])c1C([H])([H])[H]


 42 46  0  0  0  0  0  0  0  0999 V2000
    9.3548   48.9055  130.2996 C   0  0  0  0  0  0  0  0  0  0  0  0
   10.0126   49.8788  130.7120 O   0  0  0  0  0  0  0  0  0  0  0  0
    8.1382   49.0740  129.6291 N   0  0  0  0  0  0  0  0  0  0  0  0
    7.6675   48.1623  129.3183 H   0  0  0  0  0  0  0  0  0  0  0  0
    7.5176   50.3119  129.3528 C   0  0  0  0  0  0  0  0  0  0  0  0
    6.6654   50.9832  130.1747 C   0  0  0  0  0  0  0  0  0  0  0  0
    6.1447   52.2024  129.8062 C   0  0  0  0  0  0  0  0  0  0  0  0
    6.4677   52.7782  128.6002 C   0  0  0  0  0  0  0  0  0  0  0  0
    5.9063   54.0890  128.2058 C   0  0  0  0  0  0  0  0  0  0  0  0
    7.3354   52.1263  127.7281 C   0  0  0  0  0  0  0  0  0  0  0  0
    7.8425   50.9071  128.1218 C   0  0  0  0  0  0  0  0  0  0  0  0
    7.6378   52.7515  126.5199 N   0  0  0  0  0  0  0  0  0  0  0  0
    8.0280   54.0723  126.2569 C   0  0  0  0  0  0  0  0  0  0  0  0
    8.1600   54.9074  127.1676 O   0  0  0  0  0  0  0  0  0  0  0  0
    7.5678   52.1439  125.6311 H   0  0  0  0  0  0  0  0  0  0  0  0
    8.2979   54.5234  124.8739 C   0  0  0  0  0  0  0  0  0  0  0  0
    9.4701   55.1311  124.4755 C   0  0  0  0  0  0  0  0  0  0  0  0
    9.3651   55.3937  123.1701 N   0  0  0  0  0  0  0  0  0  0  0  0
    8.1695   54.9719  122.7392 C   0  0  0  0  0  0  0  0  0  0  0  0
    7.5803   55.0117  121.4776 C   0  0  0  0  0  0  0  0  0  0  0  0
    6.3175   54.5019  121.2927 C   0  0  0  0  0  0  0  0  0  0  0  0
    5.6796   53.9628  122.3923 C   0  0  0  0  0  0  0  0  0  0  0  0
    6.2798   53.9329  123.6326 C   0  0  0  0  0  0  0  0  0  0  0  0
    7.5129   54.4330  123.8033 N   0  0  0  0  0  0  0  0  0  0  0  0
   11.0863   45.0640  131.1658 C   0  0  0  0  0  0  0  0  0  0  0  0
   10.6448   45.3927  129.9006 C   0  0  0  0  0  0  0  0  0  0  0  0
   10.0742   46.6325  129.5848 C   0  0  0  0  0  0  0  0  0  0  0  0
    9.9377   47.5818  130.5623 C   0  0  0  0  0  0  0  0  0  0  0  0
   10.3707   47.2683  131.8137 C   0  0  0  0  0  0  0  0  0  0  0  0
   10.9437   46.0314  132.1461 C   0  0  0  0  0  0  0  0  0  0  0  0
   11.3753   45.7703  133.5183 C   0  0  0  0  0  0  0  0  0  0  0  0
   10.6091   44.8726  134.2216 F   0  0  0  0  0  0  0  0  0  0  0  0
   12.7282   45.4633  133.6053 F   0  0  0  0  0  0  0  0  0  0  0  0
   11.2568   46.9679  134.2442 F   0  0  0  0  0  0  0  0  0  0  0  0
   11.7239   43.7794  131.4697 C   0  0  0  0  0  0  0  0  0  0  0  0
    7.7914   42.3552  133.3158 C   0  0  0  0  0  0  0  0  0  0  0  0
    9.0100   42.8975  132.8237 N   0  0  0  0  0  0  0  0  0  0  0  0
   10.1960   42.1717  133.1280 C   0  0  0  0  0  0  0  0  0  0  0  0
   10.9287   41.6086  131.9809 C   0  0  0  0  0  0  0  0  0  0  0  0
   11.1053   42.6164  130.9156 N   0  0  0  0  0  0  0  0  0  0  0  0
    9.7246   42.8262  130.4697 C   0  0  0  0  0  0  0  0  0  0  0  0
    8.9776   43.5177  131.5484 C   0  0  0  0  0  0  0  0  0  0  0  0
 36 37  1  0  0  0
 37 38  1  0  0  0
 38 39  1  0  0  0
 39 40  1  0  0  0
 40 35  1  0  0  0
 35 25  1  0  0  0
 25 26  2  0  0  0
 26 27  1  0  0  0
 27 28  2  0  0  0
 28 29  1  0  0  0
 29 30  2  0  0  0
 30 31  1  0  0  0
 31 32  1  0  0  0
 31 33  1  0  0  0
 31 34  1  0  0  0
 28  1  1  0  0  0
  1  2  2  0  0  0
  1  3  1  0  0  0
  3  5  1  0  0  0
  5  6  2  0  0  0
  6  7  1  0  0  0
  7  8  2  0  0  0
  8  9  1  0  0  0
  8 10  1  0  0  0
 10 12  1  0  0  0
 12 13  1  0  0  0
 13 14  2  0  0  0
 13 16  1  0  0  0
 16 17  2  0  0  0
 17 18  1  0  0  0
 18 19  2  0  0  0
 19 20  1  0  0  0
 20 21  2  0  0  0
 21 22  1  0  0  0
 22 23  2  0  0  0
 23 24  1  0  0  0
 10 11  2  0  0  0
 40 41  1  0  0  0
 41 42  1  0  0  0
 42 37  1  0  0  0
 30 25  1  0  0  0
 11  5  1  0  0  0
 24 16  1  0  0  0
 24 19  1  0  0  0
  3  4  1  0  0  0
 12 15  1  0  0  0
M  END
> <minimizedAffinity>
6.81106

> <CNNscore>
0.3442212641

> <CNNaffinity>
7.0965218544

> <CNN_VS>
2.4427738190

> <CNNaffinity_variance>
0.1163247079

$$$$
[H]c1nc2c([H])c([H])c([H])c([H])n2c1C(=O)N([H])c1c([H])c(N([H])C(=O)c2c([H])c([H])c(C([H])([H])N3C([H])([H])C([H])([H])N(C([H])([H])[H])C([H])([H])C3([H])[H])c(C(F)(F)F)c2[H])c([H])c([H])c1C([H])([H])[H]


 42 46  0  0  0  0  0  0  0  0999 V2000
    7.8390   48.6792  130.6034 C   0  0  0  0  0  0  0  0  0  0  0  0
    7.7644   49.3345  131.6594 O   0  0  0  0  0  0  0  0  0  0  0  0
    7.7037   49.2887  129.3511 N   0  0  0  0  0  0  0  0  0  0  0  0
    7.7917   48.6221  128.5161 H   0  0  0  0  0  0  0  0  0  0  0  0
    7.4651   50.6625  129.1282 C   0  0  0  0  0  0  0  0  0  0  0  0
    7.3782   51.6271  130.0844 C   0  0  0  0  0  0  0  0  0  0  0  0
    7.1711   52.9434  129.7410 C   0  0  0  0  0  0  0  0  0  0  0  0
    7.0456   53.3236  128.4257 C   0  0  0  0  0  0  0  0  0  0  0  0
    6.8225   54.7395  128.0588 C   0  0  0  0  0  0  0  0  0  0  0  0
    7.1275   52.3698  127.4148 C   0  0  0  0  0  0  0  0  0  0  0  0
    7.3355   51.0594  127.7862 C   0  0  0  0  0  0  0  0  0  0  0  0
    7.0001   52.8036  126.0966 N   0  0  0  0  0  0  0  0  0  0  0  0
    7.7837   53.7029  125.3597 C   0  0  0  0  0  0  0  0  0  0  0  0
    8.7762   54.2622  125.8562 O   0  0  0  0  0  0  0  0  0  0  0  0
    6.1750   52.3976  125.5324 H   0  0  0  0  0  0  0  0  0  0  0  0
    7.4541   54.0217  123.9531 C   0  0  0  0  0  0  0  0  0  0  0  0
    8.3917   54.3476  122.9957 C   0  0  0  0  0  0  0  0  0  0  0  0
    7.7400   54.5657  121.8503 N   0  0  0  0  0  0  0  0  0  0  0  0
    6.4293   54.3878  122.0583 C   0  0  0  0  0  0  0  0  0  0  0  0
    5.3390   54.4931  121.1976 C   0  0  0  0  0  0  0  0  0  0  0  0
    4.0690   54.2550  121.6654 C   0  0  0  0  0  0  0  0  0  0  0  0
    3.9323   53.9152  122.9967 C   0  0  0  0  0  0  0  0  0  0  0  0
    5.0240   53.8162  123.8323 C   0  0  0  0  0  0  0  0  0  0  0  0
    6.2600   54.0505  123.3665 N   0  0  0  0  0  0  0  0  0  0  0  0
    8.5447   44.4733  131.1682 C   0  0  0  0  0  0  0  0  0  0  0  0
    8.4564   45.0321  129.9097 C   0  0  0  0  0  0  0  0  0  0  0  0
    8.2250   46.3961  129.6901 C   0  0  0  0  0  0  0  0  0  0  0  0
    8.0765   47.2370  130.7608 C   0  0  0  0  0  0  0  0  0  0  0  0
    8.1627   46.6964  132.0065 C   0  0  0  0  0  0  0  0  0  0  0  0
    8.3935   45.3327  132.2433 C   0  0  0  0  0  0  0  0  0  0  0  0
    8.4631   44.8297  133.6142 C   0  0  0  0  0  0  0  0  0  0  0  0
    8.0695   43.5251  133.7892 F   0  0  0  0  0  0  0  0  0  0  0  0
    9.6931   45.0754  134.2132 F   0  0  0  0  0  0  0  0  0  0  0  0
    7.5578   45.5706  134.3931 F   0  0  0  0  0  0  0  0  0  0  0  0
    8.8337   43.0521  131.3815 C   0  0  0  0  0  0  0  0  0  0  0  0
   12.8934   43.6096  133.4087 C   0  0  0  0  0  0  0  0  0  0  0  0
   11.5782   43.4921  132.8818 N   0  0  0  0  0  0  0  0  0  0  0  0
   11.2644   44.3214  131.7683 C   0  0  0  0  0  0  0  0  0  0  0  0
   10.9563   43.6289  130.5053 C   0  0  0  0  0  0  0  0  0  0  0  0
    9.9899   42.5330  130.7213 N   0  0  0  0  0  0  0  0  0  0  0  0
   10.7744   41.5972  131.5326 C   0  0  0  0  0  0  0  0  0  0  0  0
   10.9955   42.1990  132.8701 C   0  0  0  0  0  0  0  0  0  0  0  0
 36 37  1  0  0  0
 37 38  1  0  0  0
 38 39  1  0  0  0
 39 40  1  0  0  0
 40 35  1  0  0  0
 35 25  1  0  0  0
 25 26  2  0  0  0
 26 27  1  0  0  0
 27 28  2  0  0  0
 28 29  1  0  0  0
 29 30  2  0  0  0
 30 31  1  0  0  0
 31 32  1  0  0  0
 31 33  1  0  0  0
 31 34  1  0  0  0
 28  1  1  0  0  0
  1  2  2  0  0  0
  1  3  1  0  0  0
  3  5  1  0  0  0
  5  6  2  0  0  0
  6  7  1  0  0  0
  7  8  2  0  0  0
  8  9  1  0  0  0
  8 10  1  0  0  0
 10 12  1  0  0  0
 12 13  1  0  0  0
 13 14  2  0  0  0
 13 16  1  0  0  0
 16 17  2  0  0  0
 17 18  1  0  0  0
 18 19  2  0  0  0
 19 20  1  0  0  0
 20 21  2  0  0  0
 21 22  1  0  0  0
 22 23  2  0  0  0
 23 24  1  0  0  0
 10 11  2  0  0  0
 40 41  1  0  0  0
 41 42  1  0  0  0
 42 37  1  0  0  0
 30 25  1  0  0  0
 11  5  1  0  0  0
 24 16  1  0  0  0
 24 19  1  0  0  0
  3  4  1  0  0  0
 12 15  1  0  0  0
M  END
> <minimizedAffinity>
8.54265

> <CNNscore>
0.3321318924

> <CNNaffinity>
7.0172681808

> <CNN_VS>
2.3306586742

> <CNNaffinity_variance>
0.6333701015

$$$$
[H]c1nc2c([H])c([H])c([H])c([H])n2c1C(=O)N([H])c1c([H])c(N([H])C(=O)c2c([H])c([H])c(C([H])([H])N3C([H])([H])C([H])([H])N(C([H])([H])[H])C([H])([H])C3([H])[H])c(C(F)(F)F)c2[H])c([H])c([H])c1C([H])([H])[H]


 42 46  0  0  0  0  0  0  0  0999 V2000
    9.3640   48.9416  130.6724 C   0  0  0  0  0  0  0  0  0  0  0  0
    9.7818   49.9292  131.3050 O   0  0  0  0  0  0  0  0  0  0  0  0
    8.3109   49.0492  129.7571 N   0  0  0  0  0  0  0  0  0  0  0  0
    8.0438   48.1317  129.2711 H   0  0  0  0  0  0  0  0  0  0  0  0
    7.6073   50.2345  129.4508 C   0  0  0  0  0  0  0  0  0  0  0  0
    6.6725   50.8378  130.2348 C   0  0  0  0  0  0  0  0  0  0  0  0
    6.0736   52.0122  129.8404 C   0  0  0  0  0  0  0  0  0  0  0  0
    6.3994   52.6103  128.6461 C   0  0  0  0  0  0  0  0  0  0  0  0
    5.7537   53.8728  128.2239 C   0  0  0  0  0  0  0  0  0  0  0  0
    7.3500   52.0274  127.8126 C   0  0  0  0  0  0  0  0  0  0  0  0
    7.9344   50.8521  128.2315 C   0  0  0  0  0  0  0  0  0  0  0  0
    7.6515   52.6732  126.6150 N   0  0  0  0  0  0  0  0  0  0  0  0
    7.9923   54.0107  126.3685 C   0  0  0  0  0  0  0  0  0  0  0  0
    8.0709   54.8440  127.2871 O   0  0  0  0  0  0  0  0  0  0  0  0
    7.6250   52.0696  125.7211 H   0  0  0  0  0  0  0  0  0  0  0  0
    8.2722   54.4824  124.9944 C   0  0  0  0  0  0  0  0  0  0  0  0
    9.4420   55.1074  124.6165 C   0  0  0  0  0  0  0  0  0  0  0  0
    9.3481   55.3857  123.3135 N   0  0  0  0  0  0  0  0  0  0  0  0
    8.1617   54.9571  122.8644 C   0  0  0  0  0  0  0  0  0  0  0  0
    7.5856   55.0070  121.5971 C   0  0  0  0  0  0  0  0  0  0  0  0
    6.3303   54.4864  121.3922 C   0  0  0  0  0  0  0  0  0  0  0  0
    5.6865   53.9265  122.4778 C   0  0  0  0  0  0  0  0  0  0  0  0
    6.2738   53.8869  123.7240 C   0  0  0  0  0  0  0  0  0  0  0  0
    7.4996   54.3976  123.9143 N   0  0  0  0  0  0  0  0  0  0  0  0
   11.3465   45.1904  131.3824 C   0  0  0  0  0  0  0  0  0  0  0  0
   11.0193   46.0454  132.4147 C   0  0  0  0  0  0  0  0  0  0  0  0
   10.3765   47.2746  132.2187 C   0  0  0  0  0  0  0  0  0  0  0  0
   10.0454   47.6690  130.9497 C   0  0  0  0  0  0  0  0  0  0  0  0
   10.3628   46.8327  129.9243 C   0  0  0  0  0  0  0  0  0  0  0  0
   11.0067   45.5990  130.1037 C   0  0  0  0  0  0  0  0  0  0  0  0
   11.3211   44.7627  128.9466 C   0  0  0  0  0  0  0  0  0  0  0  0
   12.6485   44.4480  128.7838 F   0  0  0  0  0  0  0  0  0  0  0  0
   10.5163   43.6321  128.8681 F   0  0  0  0  0  0  0  0  0  0  0  0
   10.9938   45.4873  127.7877 F   0  0  0  0  0  0  0  0  0  0  0  0
   11.9771   43.8865  131.6082 C   0  0  0  0  0  0  0  0  0  0  0  0
    7.8500   42.0160  131.0002 C   0  0  0  0  0  0  0  0  0  0  0  0
    9.1244   42.6424  131.0686 N   0  0  0  0  0  0  0  0  0  0  0  0
    9.2271   43.7810  131.9166 C   0  0  0  0  0  0  0  0  0  0  0  0
   10.1312   43.6542  133.0726 C   0  0  0  0  0  0  0  0  0  0  0  0
   11.4369   43.0947  132.6681 N   0  0  0  0  0  0  0  0  0  0  0  0
   11.0691   41.7321  132.2715 C   0  0  0  0  0  0  0  0  0  0  0  0
   10.2656   41.8009  131.0267 C   0  0  0  0  0  0  0  0  0  0  0  0
 36 37  1  0  0  0
 37 38  1  0  0  0
 38 39  1  0  0  0
 39 40  1  0  0  0
 40 35  1  0  0  0
 35 25  1  0  0  0
 25 26  2  0  0  0
 26 27  1  0  0  0
 27 28  2  0  0  0
 28 29  1  0  0  0
 29 30  2  0  0  0
 30 31  1  0  0  0
 31 32  1  0  0  0
 31 33  1  0  0  0
 31 34  1  0  0  0
 28  1  1  0  0  0
  1  2  2  0  0  0
  1  3  1  0  0  0
  3  5  1  0  0  0
  5  6  2  0  0  0
  6  7  1  0  0  0
  7  8  2  0  0  0
  8  9  1  0  0  0
  8 10  1  0  0  0
 10 12  1  0  0  0
 12 13  1  0  0  0
 13 14  2  0  0  0
 13 16  1  0  0  0
 16 17  2  0  0  0
 17 18  1  0  0  0
 18 19  2  0  0  0
 19 20  1  0  0  0
 20 21  2  0  0  0
 21 22  1  0  0  0
 22 23  2  0  0  0
 23 24  1  0  0  0
 10 11  2  0  0  0
 40 41  1  0  0  0
 41 42  1  0  0  0
 42 37  1  0  0  0
 30 25  1  0  0  0
 11  5  1  0  0  0
 24 16  1  0  0  0
 24 19  1  0  0  0
  3  4  1  0  0  0
 12 15  1  0  0  0
M  END
> <minimizedAffinity>
7.02233

> <CNNscore>
0.2792518437

> <CNNaffinity>
7.1655859947

> <CNN_VS>
2.0010030270

> <CNNaffinity_variance>
0.1086636186

$$$$
[H]c1nc2c([H])c([H])c([H])c([H])n2c1C(=O)N([H])c1c([H])c(N([H])C(=O)c2c([H])c([H])c(C([H])([H])N3C([H])([H])C([H])([H])N(C([H])([H])[H])C([H])([H])C3([H])[H])c(C(F)(F)F)c2[H])c([H])c([H])c1C([H])([H])[H]


 42 46  0  0  0  0  0  0  0  0999 V2000
    9.1701   49.0694  131.1376 C   0  0  0  0  0  0  0  0  0  0  0  0
    9.3790   50.0365  131.8933 O   0  0  0  0  0  0  0  0  0  0  0  0
    8.3157   49.1724  130.0341 N   0  0  0  0  0  0  0  0  0  0  0  0
    8.2197   48.2746  129.4561 H   0  0  0  0  0  0  0  0  0  0  0  0
    7.6014   50.3296  129.6541 C   0  0  0  0  0  0  0  0  0  0  0  0
    6.6505   50.9641  130.3927 C   0  0  0  0  0  0  0  0  0  0  0  0
    6.0420   52.1068  129.9266 C   0  0  0  0  0  0  0  0  0  0  0  0
    6.3743   52.6411  128.7041 C   0  0  0  0  0  0  0  0  0  0  0  0
    5.7185   53.8697  128.2047 C   0  0  0  0  0  0  0  0  0  0  0  0
    7.3415   52.0245  127.9150 C   0  0  0  0  0  0  0  0  0  0  0  0
    7.9351   50.8820  128.4056 C   0  0  0  0  0  0  0  0  0  0  0  0
    7.6490   52.6059  126.6864 N   0  0  0  0  0  0  0  0  0  0  0  0
    7.9572   53.9356  126.3659 C   0  0  0  0  0  0  0  0  0  0  0  0
    7.9940   54.8243  127.2337 O   0  0  0  0  0  0  0  0  0  0  0  0
    7.6574   51.9494  125.8302 H   0  0  0  0  0  0  0  0  0  0  0  0
    8.2515   54.3321  124.9712 C   0  0  0  0  0  0  0  0  0  0  0  0
    9.4719   54.8148  124.5474 C   0  0  0  0  0  0  0  0  0  0  0  0
    9.3757   55.0619  123.2383 N   0  0  0  0  0  0  0  0  0  0  0  0
    8.1391   54.7509  122.8296 C   0  0  0  0  0  0  0  0  0  0  0  0
    7.5399   54.8243  121.5742 C   0  0  0  0  0  0  0  0  0  0  0  0
    6.2311   54.4368  121.4139 C   0  0  0  0  0  0  0  0  0  0  0  0
    5.5583   53.9833  122.5311 C   0  0  0  0  0  0  0  0  0  0  0  0
    6.1692   53.9183  123.7649 C   0  0  0  0  0  0  0  0  0  0  0  0
    7.4473   54.2987  123.9116 N   0  0  0  0  0  0  0  0  0  0  0  0
   11.1908   45.4343  132.2369 C   0  0  0  0  0  0  0  0  0  0  0  0
   11.4338   46.0646  131.0338 C   0  0  0  0  0  0  0  0  0  0  0  0
   10.7920   47.2471  130.6436 C   0  0  0  0  0  0  0  0  0  0  0  0
    9.8749   47.8257  131.4801 C   0  0  0  0  0  0  0  0  0  0  0  0
    9.6284   47.2126  132.6696 C   0  0  0  0  0  0  0  0  0  0  0  0
   10.2622   46.0282  133.0749 C   0  0  0  0  0  0  0  0  0  0  0  0
    9.9336   45.4276  134.3667 C   0  0  0  0  0  0  0  0  0  0  0  0
   10.8307   44.4987  134.8356 F   0  0  0  0  0  0  0  0  0  0  0  0
    9.6285   46.3757  135.3362 F   0  0  0  0  0  0  0  0  0  0  0  0
    8.7369   44.7061  134.2162 F   0  0  0  0  0  0  0  0  0  0  0  0
   11.9050   44.2228  132.6508 C   0  0  0  0  0  0  0  0  0  0  0  0
    8.1014   42.2625  131.0410 C   0  0  0  0  0  0  0  0  0  0  0  0
    9.2079   42.9494  131.6111 N   0  0  0  0  0  0  0  0  0  0  0  0
    9.9986   42.2172  132.5410 C   0  0  0  0  0  0  0  0  0  0  0  0
   11.3967   41.9647  132.1522 C   0  0  0  0  0  0  0  0  0  0  0  0
   12.0443   43.1990  131.6636 N   0  0  0  0  0  0  0  0  0  0  0  0
   11.3039   43.4557  130.4246 C   0  0  0  0  0  0  0  0  0  0  0  0
    9.9168   43.8483  130.7736 C   0  0  0  0  0  0  0  0  0  0  0  0
 36 37  1  0  0  0
 37 38  1  0  0  0
 38 39  1  0  0  0
 39 40  1  0  0  0
 40 35  1  0  0  0
 35 25  1  0  0  0
 25 26  2  0  0  0
 26 27  1  0  0  0
 27 28  2  0  0  0
 28 29  1  0  0  0
 29 30  2  0  0  0
 30 31  1  0  0  0
 31 32  1  0  0  0
 31 33  1  0  0  0
 31 34  1  0  0  0
 28  1  1  0  0  0
  1  2  2  0  0  0
  1  3  1  0  0  0
  3  5  1  0  0  0
  5  6  2  0  0  0
  6  7  1  0  0  0
  7  8  2  0  0  0
  8  9  1  0  0  0
  8 10  1  0  0  0
 10 12  1  0  0  0
 12 13  1  0  0  0
 13 14  2  0  0  0
 13 16  1  0  0  0
 16 17  2  0  0  0
 17 18  1  0  0  0
 18 19  2  0  0  0
 19 20  1  0  0  0
 20 21  2  0  0  0
 21 22  1  0  0  0
 22 23  2  0  0  0
 23 24  1  0  0  0
 10 11  2  0  0  0
 40 41  1  0  0  0
 41 42  1  0  0  0
 42 37  1  0  0  0
 30 25  1  0  0  0
 11  5  1  0  0  0
 24 16  1  0  0  0
 24 19  1  0  0  0
  3  4  1  0  0  0
 12 15  1  0  0  0
M  END
> <minimizedAffinity>
7.53439

> <CNNscore>
0.2735956907

> <CNNaffinity>
7.1009049416

> <CNN_VS>
1.9427770376

> <CNNaffinity_variance>
0.0983559117

$$$$
[H]c1nc2c([H])c([H])c([H])c([H])n2c1C(=O)N([H])c1c([H])c(N([H])C(=O)c2c([H])c([H])c(C([H])([H])N3C([H])([H])C([H])([H])N(C([H])([H])[H])C([H])([H])C3([H])[H])c(C(F)(F)F)c2[H])c([H])c([H])c1C([H])([H])[H]


 42 46  0  0  0  0  0  0  0  0999 V2000
    8.1619   48.9640  130.2883 C   0  0  0  0  0  0  0  0  0  0  0  0
    8.5472   49.6733  131.2362 O   0  0  0  0  0  0  0  0  0  0  0  0
    7.5609   49.5201  129.1535 N   0  0  0  0  0  0  0  0  0  0  0  0
    7.2763   48.8093  128.4031 H   0  0  0  0  0  0  0  0  0  0  0  0
    7.3129   50.8946  128.9460 C   0  0  0  0  0  0  0  0  0  0  0  0
    7.0436   51.8158  129.9110 C   0  0  0  0  0  0  0  0  0  0  0  0
    6.8476   53.1388  129.5875 C   0  0  0  0  0  0  0  0  0  0  0  0
    6.9171   53.5696  128.2837 C   0  0  0  0  0  0  0  0  0  0  0  0
    6.7056   54.9926  127.9381 C   0  0  0  0  0  0  0  0  0  0  0  0
    7.1896   52.6613  127.2643 C   0  0  0  0  0  0  0  0  0  0  0  0
    7.3819   51.3431  127.6158 C   0  0  0  0  0  0  0  0  0  0  0  0
    7.2559   53.1457  125.9593 N   0  0  0  0  0  0  0  0  0  0  0  0
    6.3552   53.9482  125.2447 C   0  0  0  0  0  0  0  0  0  0  0  0
    5.2968   54.3540  125.7541 O   0  0  0  0  0  0  0  0  0  0  0  0
    8.1291   52.8737  125.3871 H   0  0  0  0  0  0  0  0  0  0  0  0
    6.6343   54.3434  123.8465 C   0  0  0  0  0  0  0  0  0  0  0  0
    5.7036   54.2927  122.8300 C   0  0  0  0  0  0  0  0  0  0  0  0
    6.2994   54.7249  121.7154 N   0  0  0  0  0  0  0  0  0  0  0  0
    7.5686   55.0434  121.9995 C   0  0  0  0  0  0  0  0  0  0  0  0
    8.5951   55.5353  121.1965 C   0  0  0  0  0  0  0  0  0  0  0  0
    9.8323   55.7859  121.7397 C   0  0  0  0  0  0  0  0  0  0  0  0
   10.0015   55.5318  123.0863 C   0  0  0  0  0  0  0  0  0  0  0  0
    8.9730   55.0449  123.8640 C   0  0  0  0  0  0  0  0  0  0  0  0
    7.7686   54.8034  123.3247 N   0  0  0  0  0  0  0  0  0  0  0  0
    8.8627   44.7352  130.6515 C   0  0  0  0  0  0  0  0  0  0  0  0
    7.9308   45.3864  131.4332 C   0  0  0  0  0  0  0  0  0  0  0  0
    7.6794   46.7616  131.3427 C   0  0  0  0  0  0  0  0  0  0  0  0
    8.3796   47.5183  130.4412 C   0  0  0  0  0  0  0  0  0  0  0  0
    9.3007   46.8858  129.6646 C   0  0  0  0  0  0  0  0  0  0  0  0
    9.5644   45.5099  129.7433 C   0  0  0  0  0  0  0  0  0  0  0  0
   10.5781   44.9086  128.8783 C   0  0  0  0  0  0  0  0  0  0  0  0
   11.7287   44.4987  129.5073 F   0  0  0  0  0  0  0  0  0  0  0  0
   10.0612   43.9103  128.0609 F   0  0  0  0  0  0  0  0  0  0  0  0
   11.0117   45.8916  127.9723 F   0  0  0  0  0  0  0  0  0  0  0  0
    9.0809   43.2875  130.7256 C   0  0  0  0  0  0  0  0  0  0  0  0
   12.6164   43.8483  133.5694 C   0  0  0  0  0  0  0  0  0  0  0  0
   11.5800   43.7488  132.6013 N   0  0  0  0  0  0  0  0  0  0  0  0
   11.4194   42.4825  131.9716 C   0  0  0  0  0  0  0  0  0  0  0  0
   10.1439   41.7882  132.2183 C   0  0  0  0  0  0  0  0  0  0  0  0
    8.9966   42.6981  132.0248 N   0  0  0  0  0  0  0  0  0  0  0  0
    9.1779   43.6475  133.1270 C   0  0  0  0  0  0  0  0  0  0  0  0
   10.3833   44.4673  132.8537 C   0  0  0  0  0  0  0  0  0  0  0  0
 36 37  1  0  0  0
 37 38  1  0  0  0
 38 39  1  0  0  0
 39 40  1  0  0  0
 40 35  1  0  0  0
 35 25  1  0  0  0
 25 26  2  0  0  0
 26 27  1  0  0  0
 27 28  2  0  0  0
 28 29  1  0  0  0
 29 30  2  0  0  0
 30 31  1  0  0  0
 31 32  1  0  0  0
 31 33  1  0  0  0
 31 34  1  0  0  0
 28  1  1  0  0  0
  1  2  2  0  0  0
  1  3  1  0  0  0
  3  5  1  0  0  0
  5  6  2  0  0  0
  6  7  1  0  0  0
  7  8  2  0  0  0
  8  9  1  0  0  0
  8 10  1  0  0  0
 10 12  1  0  0  0
 12 13  1  0  0  0
 13 14  2  0  0  0
 13 16  1  0  0  0
 16 17  2  0  0  0
 17 18  1  0  0  0
 18 19  2  0  0  0
 19 20  1  0  0  0
 20 21  2  0  0  0
 21 22  1  0  0  0
 22 23  2  0  0  0
 23 24  1  0  0  0
 10 11  2  0  0  0
 40 41  1  0  0  0
 41 42  1  0  0  0
 42 37  1  0  0  0
 30 25  1  0  0  0
 11  5  1  0  0  0
 24 16  1  0  0  0
 24 19  1  0  0  0
  3  4  1  0  0  0
 12 15  1  0  0  0
M  END
> <minimizedAffinity>
7.70579

> <CNNscore>
0.2496992946

> <CNNaffinity>
7.1843352318

> <CNN_VS>
1.7939234972

> <CNNaffinity_variance>
0.3496188819

$$$$
[H]c1nc2c([H])c([H])c([H])c([H])n2c1C(=O)N([H])c1c([H])c(N([H])C(=O)c2c([H])c([H])c(C([H])([H])N3C([H])([H])C([H])([H])N(C([H])([H])[H])C([H])([H])C3([H])[H])c(C(F)(F)F)c2[H])c([H])c([H])c1C([H])([H])[H]


 42 46  0  0  0  0  0  0  0  0999 V2000
    7.3661   48.0164  129.3020 C   0  0  0  0  0  0  0  0  0  0  0  0
    6.2445   47.9657  128.7639 O   0  0  0  0  0  0  0  0  0  0  0  0
    7.9861   49.2371  129.5912 N   0  0  0  0  0  0  0  0  0  0  0  0
    8.9472   49.1521  130.0586 H   0  0  0  0  0  0  0  0  0  0  0  0
    7.4524   50.5148  129.3147 C   0  0  0  0  0  0  0  0  0  0  0  0
    6.7168   51.2786  130.1677 C   0  0  0  0  0  0  0  0  0  0  0  0
    6.2745   52.5267  129.7933 C   0  0  0  0  0  0  0  0  0  0  0  0
    6.5607   53.0389  128.5499 C   0  0  0  0  0  0  0  0  0  0  0  0
    6.0837   54.3809  128.1493 C   0  0  0  0  0  0  0  0  0  0  0  0
    7.3098   52.2915  127.6451 C   0  0  0  0  0  0  0  0  0  0  0  0
    7.7403   51.0454  128.0455 C   0  0  0  0  0  0  0  0  0  0  0  0
    7.5793   52.8546  126.3992 N   0  0  0  0  0  0  0  0  0  0  0  0
    8.0924   54.1167  126.0680 C   0  0  0  0  0  0  0  0  0  0  0  0
    8.3928   54.9487  126.9410 O   0  0  0  0  0  0  0  0  0  0  0  0
    7.3678   52.2421  125.5366 H   0  0  0  0  0  0  0  0  0  0  0  0
    8.2957   54.5072  124.6555 C   0  0  0  0  0  0  0  0  0  0  0  0
    9.4616   55.0593  124.1677 C   0  0  0  0  0  0  0  0  0  0  0  0
    9.2893   55.2773  122.8613 N   0  0  0  0  0  0  0  0  0  0  0  0
    8.0577   54.8812  122.5159 C   0  0  0  0  0  0  0  0  0  0  0  0
    7.3975   54.8948  121.2893 C   0  0  0  0  0  0  0  0  0  0  0  0
    6.1104   54.4222  121.1966 C   0  0  0  0  0  0  0  0  0  0  0  0
    5.5206   53.9460  122.3507 C   0  0  0  0  0  0  0  0  0  0  0  0
    6.1908   53.9411  123.5550 C   0  0  0  0  0  0  0  0  0  0  0  0
    7.4472   54.4046  123.6357 N   0  0  0  0  0  0  0  0  0  0  0  0
    9.2600   44.2440  130.1316 C   0  0  0  0  0  0  0  0  0  0  0  0
    8.0301   44.5715  130.6642 C   0  0  0  0  0  0  0  0  0  0  0  0
    7.3867   45.7911  130.4169 C   0  0  0  0  0  0  0  0  0  0  0  0
    7.9873   46.7200  129.6095 C   0  0  0  0  0  0  0  0  0  0  0  0
    9.2003   46.4068  129.0782 C   0  0  0  0  0  0  0  0  0  0  0  0
    9.8578   45.1903  129.3165 C   0  0  0  0  0  0  0  0  0  0  0  0
   11.1652   44.9352  128.7141 C   0  0  0  0  0  0  0  0  0  0  0  0
   12.1681   44.5991  129.5910 F   0  0  0  0  0  0  0  0  0  0  0  0
   11.0999   44.0443  127.6493 F   0  0  0  0  0  0  0  0  0  0  0  0
   11.6098   46.1304  128.1234 F   0  0  0  0  0  0  0  0  0  0  0  0
    9.8987   42.9448  130.3623 C   0  0  0  0  0  0  0  0  0  0  0  0
   12.5138   44.3061  133.8565 C   0  0  0  0  0  0  0  0  0  0  0  0
   11.7612   43.9709  132.6978 N   0  0  0  0  0  0  0  0  0  0  0  0
   12.0361   42.7056  132.1068 C   0  0  0  0  0  0  0  0  0  0  0  0
   10.9328   41.7297  132.1115 C   0  0  0  0  0  0  0  0  0  0  0  0
    9.6756   42.3454  131.6402 N   0  0  0  0  0  0  0  0  0  0  0  0
    9.3919   43.3049  132.7115 C   0  0  0  0  0  0  0  0  0  0  0  0
   10.4055   44.3865  132.6604 C   0  0  0  0  0  0  0  0  0  0  0  0
 36 37  1  0  0  0
 37 38  1  0  0  0
 38 39  1  0  0  0
 39 40  1  0  0  0
 40 35  1  0  0  0
 35 25  1  0  0  0
 25 26  2  0  0  0
 26 27  1  0  0  0
 27 28  2  0  0  0
 28 29  1  0  0  0
 29 30  2  0  0  0
 30 31  1  0  0  0
 31 32  1  0  0  0
 31 33  1  0  0  0
 31 34  1  0  0  0
 28  1  1  0  0  0
  1  2  2  0  0  0
  1  3  1  0  0  0
  3  5  1  0  0  0
  5  6  2  0  0  0
  6  7  1  0  0  0
  7  8  2  0  0  0
  8  9  1  0  0  0
  8 10  1  0  0  0
 10 12  1  0  0  0
 12 13  1  0  0  0
 13 14  2  0  0  0
 13 16  1  0  0  0
 16 17  2  0  0  0
 17 18  1  0  0  0
 18 19  2  0  0  0
 19 20  1  0  0  0
 20 21  2  0  0  0
 21 22  1  0  0  0
 22 23  2  0  0  0
 23 24  1  0  0  0
 10 11  2  0  0  0
 40 41  1  0  0  0
 41 42  1  0  0  0
 42 37  1  0  0  0
 30 25  1  0  0  0
 11  5  1  0  0  0
 24 16  1  0  0  0
 24 19  1  0  0  0
  3  4  1  0  0  0
 12 15  1  0  0  0
M  END
> <minimizedAffinity>
5.78140

> <CNNscore>
0.1844451278

> <CNNaffinity>
7.1532287598

> <CNN_VS>
1.3193781376

> <CNNaffinity_variance>
0.2290896624

$$$$
[H]c1nc2c([H])c([H])c([H])c([H])n2c1C(=O)N([H])c1c([H])c(N([H])C(=O)c2c([H])c([H])c(C([H])([H])N3C([H])([H])C([H])([H])N(C([H])([H])[H])C([H])([H])C3([H])[H])c(C(F)(F)F)c2[H])c([H])c([H])c1C([H])([H])[H]


 42 46  0  0  0  0  0  0  0  0999 V2000
    7.2859   47.8001  129.7691 C   0  0  0  0  0  0  0  0  0  0  0  0
    6.1159   47.7284  129.3494 O   0  0  0  0  0  0  0  0  0  0  0  0
    7.9432   49.0283  129.9021 N   0  0  0  0  0  0  0  0  0  0  0  0
    8.9451   48.9623  130.2778 H   0  0  0  0  0  0  0  0  0  0  0  0
    7.3968   50.2906  129.5828 C   0  0  0  0  0  0  0  0  0  0  0  0
    6.6203   51.0575  130.3960 C   0  0  0  0  0  0  0  0  0  0  0  0
    6.1690   52.2899  129.9824 C   0  0  0  0  0  0  0  0  0  0  0  0
    6.4872   52.7830  128.7391 C   0  0  0  0  0  0  0  0  0  0  0  0
    6.0005   54.1082  128.2964 C   0  0  0  0  0  0  0  0  0  0  0  0
    7.2787   52.0318  127.8744 C   0  0  0  0  0  0  0  0  0  0  0  0
    7.7173   50.8017  128.3134 C   0  0  0  0  0  0  0  0  0  0  0  0
    7.5796   52.5755  126.6270 N   0  0  0  0  0  0  0  0  0  0  0  0
    7.9448   53.8821  126.2731 C   0  0  0  0  0  0  0  0  0  0  0  0
    8.0511   54.7828  127.1227 O   0  0  0  0  0  0  0  0  0  0  0  0
    7.5304   51.9046  125.7834 H   0  0  0  0  0  0  0  0  0  0  0  0
    8.2184   54.2389  124.8635 C   0  0  0  0  0  0  0  0  0  0  0  0
    9.4547   54.6278  124.3921 C   0  0  0  0  0  0  0  0  0  0  0  0
    9.3314   54.8645  123.0833 N   0  0  0  0  0  0  0  0  0  0  0  0
    8.0625   54.6375  122.7208 C   0  0  0  0  0  0  0  0  0  0  0  0
    7.4273   54.7377  121.4851 C   0  0  0  0  0  0  0  0  0  0  0  0
    6.0896   54.4428  121.3745 C   0  0  0  0  0  0  0  0  0  0  0  0
    5.4251   54.0527  122.5202 C   0  0  0  0  0  0  0  0  0  0  0  0
    6.0718   53.9598  123.7338 C   0  0  0  0  0  0  0  0  0  0  0  0
    7.3779   54.2497  123.8320 N   0  0  0  0  0  0  0  0  0  0  0  0
    9.1269   44.0725  130.8744 C   0  0  0  0  0  0  0  0  0  0  0  0
    9.1841   44.5557  129.5833 C   0  0  0  0  0  0  0  0  0  0  0  0
    8.5940   45.7635  129.1890 C   0  0  0  0  0  0  0  0  0  0  0  0
    7.9222   46.5201  130.1120 C   0  0  0  0  0  0  0  0  0  0  0  0
    7.8605   46.0530  131.3886 C   0  0  0  0  0  0  0  0  0  0  0  0
    8.4457   44.8457  131.7993 C   0  0  0  0  0  0  0  0  0  0  0  0
    8.3255   44.4101  133.1896 C   0  0  0  0  0  0  0  0  0  0  0  0
    8.0364   43.0795  133.3726 F   0  0  0  0  0  0  0  0  0  0  0  0
    9.4032   44.8094  133.9713 F   0  0  0  0  0  0  0  0  0  0  0  0
    7.2312   45.0825  133.7603 F   0  0  0  0  0  0  0  0  0  0  0  0
    9.7896   42.8299  131.2814 C   0  0  0  0  0  0  0  0  0  0  0  0
   12.9267   45.1522  133.6619 C   0  0  0  0  0  0  0  0  0  0  0  0
   11.8630   44.4769  133.0033 N   0  0  0  0  0  0  0  0  0  0  0  0
   11.5125   44.9553  131.7093 C   0  0  0  0  0  0  0  0  0  0  0  0
   11.7166   44.0194  130.5903 C   0  0  0  0  0  0  0  0  0  0  0  0
   11.1601   42.6873  130.9025 N   0  0  0  0  0  0  0  0  0  0  0  0
   12.0393   42.2420  131.9877 C   0  0  0  0  0  0  0  0  0  0  0  0
   11.7716   43.0733  133.1865 C   0  0  0  0  0  0  0  0  0  0  0  0
 36 37  1  0  0  0
 37 38  1  0  0  0
 38 39  1  0  0  0
 39 40  1  0  0  0
 40 35  1  0  0  0
 35 25  1  0  0  0
 25 26  2  0  0  0
 26 27  1  0  0  0
 27 28  2  0  0  0
 28 29  1  0  0  0
 29 30  2  0  0  0
 30 31  1  0  0  0
 31 32  1  0  0  0
 31 33  1  0  0  0
 31 34  1  0  0  0
 28  1  1  0  0  0
  1  2  2  0  0  0
  1  3  1  0  0  0
  3  5  1  0  0  0
  5  6  2  0  0  0
  6  7  1  0  0  0
  7  8  2  0  0  0
  8  9  1  0  0  0
  8 10  1  0  0  0
 10 12  1  0  0  0
 12 13  1  0  0  0
 13 14  2  0  0  0
 13 16  1  0  0  0
 16 17  2  0  0  0
 17 18  1  0  0  0
 18 19  2  0  0  0
 19 20  1  0  0  0
 20 21  2  0  0  0
 21 22  1  0  0  0
 22 23  2  0  0  0
 23 24  1  0  0  0
 10 11  2  0  0  0
 40 41  1  0  0  0
 41 42  1  0  0  0
 42 37  1  0  0  0
 30 25  1  0  0  0
 11  5  1  0  0  0
 24 16  1  0  0  0
 24 19  1  0  0  0
  3  4  1  0  0  0
 12 15  1  0  0  0
M  END
> <minimizedAffinity>
6.77719

> <CNNscore>
0.1728418171

> <CNNaffinity>
7.0553865433

> <CNN_VS>
1.2194658518

> <CNNaffinity_variance>
0.3076984286

$$$$
[H]c1nc(N([H])c2c([H])c([H])c(N3C([H])([H])C([H])([H])N(C([H])([H])[H])C([H])([H])C3([H])[H])c([H])c2OC([H])([H])[H])nc(N([H])c2c([H])c([H])c([H])c([H])c2S(=O)(=O)C([H])(C([H])([H])[H])C([H])([H])[H])c1Cl


 38 41  0  0  0  0  0  0  0  0999 V2000
    9.0961   46.6958  129.6969 C   0  0  0  0  0  0  0  0  0  0  0  0
    9.6252   46.1111  128.6225 N   0  0  0  0  0  0  0  0  0  0  0  0
   10.7185   45.3611  128.6103 C   0  0  0  0  0  0  0  0  0  0  0  0
   11.3828   45.1535  129.7984 C   0  0  0  0  0  0  0  0  0  0  0  0
   12.8344   44.1732  129.8541 Cl  0  0  0  0  0  0  0  0  0  0  0  0
   10.8878   45.7396  130.9918 C   0  0  0  0  0  0  0  0  0  0  0  0
    9.7906   46.4605  130.8513 N   0  0  0  0  0  0  0  0  0  0  0  0
    7.9341   47.4993  129.7406 N   0  0  0  0  0  0  0  0  0  0  0  0
    7.1506   47.0971  130.3677 H   0  0  0  0  0  0  0  0  0  0  0  0
    7.7667   49.9000  129.8213 C   0  0  0  0  0  0  0  0  0  0  0  0
    7.5544   51.1043  129.1992 C   0  0  0  0  0  0  0  0  0  0  0  0
    7.2870   51.2348  127.8672 C   0  0  0  0  0  0  0  0  0  0  0  0
    7.2346   50.0637  127.1356 C   0  0  0  0  0  0  0  0  0  0  0  0
    7.4498   48.8269  127.7616 C   0  0  0  0  0  0  0  0  0  0  0  0
    7.7148   48.7037  129.0822 C   0  0  0  0  0  0  0  0  0  0  0  0
    7.0878   52.4968  127.2662 N   0  0  0  0  0  0  0  0  0  0  0  0
    6.8328   53.7206  128.0140 C   0  0  0  0  0  0  0  0  0  0  0  0
    7.6843   54.8627  127.4959 C   0  0  0  0  0  0  0  0  0  0  0  0
    7.8467   54.8829  126.0776 N   0  0  0  0  0  0  0  0  0  0  0  0
    6.7210   55.4109  125.3645 C   0  0  0  0  0  0  0  0  0  0  0  0
    8.2906   53.5915  125.5503 C   0  0  0  0  0  0  0  0  0  0  0  0
    7.1121   52.6443  125.8304 C   0  0  0  0  0  0  0  0  0  0  0  0
    9.3755   49.7650  131.6191 C   0  0  0  0  0  0  0  0  0  0  0  0
    8.0357   49.8399  131.1871 O   0  0  0  0  0  0  0  0  0  0  0  0
   11.5898   45.4821  132.1920 N   0  0  0  0  0  0  0  0  0  0  0  0
   12.5990   45.1725  132.0628 H   0  0  0  0  0  0  0  0  0  0  0  0
   11.0563   45.6342  133.4809 C   0  0  0  0  0  0  0  0  0  0  0  0
   11.1665   46.7626  134.2619 C   0  0  0  0  0  0  0  0  0  0  0  0
   10.6669   46.8380  135.5739 C   0  0  0  0  0  0  0  0  0  0  0  0
   10.0431   45.7158  136.0775 C   0  0  0  0  0  0  0  0  0  0  0  0
    9.9197   44.5782  135.3200 C   0  0  0  0  0  0  0  0  0  0  0  0
   10.4112   44.5093  134.0308 C   0  0  0  0  0  0  0  0  0  0  0  0
   10.2116   43.0860  133.0518 S   0  0  0  0  0  0  0  0  0  0  0  0
   11.4915   42.5910  132.4437 O   0  0  0  0  0  0  0  0  0  0  0  0
    9.8174   41.9680  134.0378 O   0  0  0  0  0  0  0  0  0  0  0  0
    8.8749   43.1903  131.9208 C   0  0  0  0  0  0  0  0  0  0  0  0
    7.7000   42.3361  132.4186 C   0  0  0  0  0  0  0  0  0  0  0  0
    9.2387   42.5726  130.5654 C   0  0  0  0  0  0  0  0  0  0  0  0
 23 24  1  0  0  0
 24 10  1  0  0  0
 10 11  2  0  0  0
 11 12  1  0  0  0
 12 13  2  0  0  0
 13 14  1  0  0  0
 14 15  2  0  0  0
 15  8  1  0  0  0
  8  1  1  0  0  0
  1  2  2  0  0  0
  2  3  1  0  0  0
  3  4  2  0  0  0
  4  5  1  0  0  0
  4  6  1  0  0  0
  6 25  1  0  0  0
 25 27  1  0  0  0
 27 28  2  0  0  0
 28 29  1  0  0  0
 29 30  2  0  0  0
 30 31  1  0  0  0
 31 32  2  0  0  0
 32 33  1  0  0  0
 33 34  2  0  0  0
 33 35  2  0  0  0
 33 36  1  0  0  0
 36 37  1  0  0  0
 36 38  1  0  0  0
  6  7  2  0  0  0
 12 16  1  0  0  0
 16 17  1  0  0  0
 17 18  1  0  0  0
 18 19  1  0  0  0
 19 20  1  0  0  0
 19 21  1  0  0  0
 21 22  1  0  0  0
 15 10  1  0  0  0
  7  1  1  0  0  0
 22 16  1  0  0  0
 32 27  1  0  0  0
  8  9  1  0  0  0
 25 26  1  0  0  0
M  END
> <minimizedAffinity>
9.33647

> <CNNscore>
0.2794015110

> <CNNaffinity>
7.8222365379

> <CNN_VS>
2.1855447292

> <CNNaffinity_variance>
0.1676546186

$$$$
[H]c1nc(N([H])c2c([H])c([H])c(N3C([H])([H])C([H])([H])N(C([H])([H])[H])C([H])([H])C3([H])[H])c([H])c2OC([H])([H])[H])nc(N([H])c2c([H])c([H])c([H])c([H])c2S(=O)(=O)C([H])(C([H])([H])[H])C([H])([H])[H])c1Cl


 38 41  0  0  0  0  0  0  0  0999 V2000
    8.4900   48.4308  131.6835 C   0  0  0  0  0  0  0  0  0  0  0  0
    8.9910   48.9745  132.7924 N   0  0  0  0  0  0  0  0  0  0  0  0
   10.0448   48.5302  133.4632 C   0  0  0  0  0  0  0  0  0  0  0  0
   10.6951   47.4111  132.9933 C   0  0  0  0  0  0  0  0  0  0  0  0
   12.0944   46.7698  133.8313 Cl  0  0  0  0  0  0  0  0  0  0  0  0
   10.2279   46.7687  131.8178 C   0  0  0  0  0  0  0  0  0  0  0  0
    9.1692   47.3232  131.2568 N   0  0  0  0  0  0  0  0  0  0  0  0
    7.3702   48.8813  130.9480 N   0  0  0  0  0  0  0  0  0  0  0  0
    6.4753   48.2990  131.1181 H   0  0  0  0  0  0  0  0  0  0  0  0
    7.3547   49.6989  128.6832 C   0  0  0  0  0  0  0  0  0  0  0  0
    7.3020   50.7377  127.7885 C   0  0  0  0  0  0  0  0  0  0  0  0
    7.2104   52.0500  128.1522 C   0  0  0  0  0  0  0  0  0  0  0  0
    7.1710   52.3079  129.5092 C   0  0  0  0  0  0  0  0  0  0  0  0
    7.2245   51.2533  130.4328 C   0  0  0  0  0  0  0  0  0  0  0  0
    7.3151   49.9545  130.0664 C   0  0  0  0  0  0  0  0  0  0  0  0
    7.1457   53.0866  127.1959 N   0  0  0  0  0  0  0  0  0  0  0  0
    6.8613   54.4771  127.5240 C   0  0  0  0  0  0  0  0  0  0  0  0
    7.8227   55.4111  126.8162 C   0  0  0  0  0  0  0  0  0  0  0  0
    8.1554   55.0187  125.4844 N   0  0  0  0  0  0  0  0  0  0  0  0
    7.1503   55.3307  124.5112 C   0  0  0  0  0  0  0  0  0  0  0  0
    8.5972   53.6252  125.4091 C   0  0  0  0  0  0  0  0  0  0  0  0
    7.3496   52.8126  125.7932 C   0  0  0  0  0  0  0  0  0  0  0  0
    6.3982   47.4851  128.5313 C   0  0  0  0  0  0  0  0  0  0  0  0
    7.4477   48.3807  128.2416 O   0  0  0  0  0  0  0  0  0  0  0  0
   10.9393   45.6356  131.3599 N   0  0  0  0  0  0  0  0  0  0  0  0
   11.7590   45.3442  131.9717 H   0  0  0  0  0  0  0  0  0  0  0  0
   10.6165   44.8970  130.2114 C   0  0  0  0  0  0  0  0  0  0  0  0
   11.0930   45.1443  128.9436 C   0  0  0  0  0  0  0  0  0  0  0  0
   10.6857   44.4109  127.8155 C   0  0  0  0  0  0  0  0  0  0  0  0
    9.7654   43.4034  128.0158 C   0  0  0  0  0  0  0  0  0  0  0  0
    9.2747   43.1360  129.2691 C   0  0  0  0  0  0  0  0  0  0  0  0
    9.6787   43.8588  130.3748 C   0  0  0  0  0  0  0  0  0  0  0  0
    9.0961   43.4887  131.9710 S   0  0  0  0  0  0  0  0  0  0  0  0
    8.4362   44.6510  132.6539 O   0  0  0  0  0  0  0  0  0  0  0  0
    7.9446   42.4854  131.7595 O   0  0  0  0  0  0  0  0  0  0  0  0
   10.2637   42.6409  132.9685 C   0  0  0  0  0  0  0  0  0  0  0  0
   10.8478   43.5973  134.0183 C   0  0  0  0  0  0  0  0  0  0  0  0
   11.4810   42.1955  132.1495 C   0  0  0  0  0  0  0  0  0  0  0  0
 23 24  1  0  0  0
 24 10  1  0  0  0
 10 11  2  0  0  0
 11 12  1  0  0  0
 12 13  2  0  0  0
 13 14  1  0  0  0
 14 15  2  0  0  0
 15  8  1  0  0  0
  8  1  1  0  0  0
  1  2  2  0  0  0
  2  3  1  0  0  0
  3  4  2  0  0  0
  4  5  1  0  0  0
  4  6  1  0  0  0
  6 25  1  0  0  0
 25 27  1  0  0  0
 27 28  2  0  0  0
 28 29  1  0  0  0
 29 30  2  0  0  0
 30 31  1  0  0  0
 31 32  2  0  0  0
 32 33  1  0  0  0
 33 34  2  0  0  0
 33 35  2  0  0  0
 33 36  1  0  0  0
 36 37  1  0  0  0
 36 38  1  0  0  0
  6  7  2  0  0  0
 12 16  1  0  0  0
 16 17  1  0  0  0
 17 18  1  0  0  0
 18 19  1  0  0  0
 19 20  1  0  0  0
 19 21  1  0  0  0
 21 22  1  0  0  0
 15 10  1  0  0  0
  7  1  1  0  0  0
 22 16  1  0  0  0
 32 27  1  0  0  0
  8  9  1  0  0  0
 25 26  1  0  0  0
M  END
> <minimizedAffinity>
1.75870

> <CNNscore>
0.2100931406

> <CNNaffinity>
7.5838165283

> <CNN_VS>
1.5933078527

> <CNNaffinity_variance>
0.2914800048

$$$$
[H]c1nc(N([H])c2c([H])c([H])c(N3C([H])([H])C([H])([H])N(C([H])([H])[H])C([H])([H])C3([H])[H])c([H])c2OC([H])([H])[H])nc(N([H])c2c([H])c([H])c([H])c([H])c2S(=O)(=O)C([H])(C([H])([H])[H])C([H])([H])[H])c1Cl


 38 41  0  0  0  0  0  0  0  0999 V2000
    7.9404   46.9444  129.5269 C   0  0  0  0  0  0  0  0  0  0  0  0
    8.2598   46.9239  128.2331 N   0  0  0  0  0  0  0  0  0  0  0  0
    9.3915   46.4572  127.7237 C   0  0  0  0  0  0  0  0  0  0  0  0
   10.3345   45.9440  128.5859 C   0  0  0  0  0  0  0  0  0  0  0  0
   11.8524   45.3112  127.9802 Cl  0  0  0  0  0  0  0  0  0  0  0  0
   10.0759   45.9272  129.9807 C   0  0  0  0  0  0  0  0  0  0  0  0
    8.9076   46.4247  130.3422 N   0  0  0  0  0  0  0  0  0  0  0  0
    6.7442   47.4345  130.0984 N   0  0  0  0  0  0  0  0  0  0  0  0
    6.5386   47.0385  131.0832 H   0  0  0  0  0  0  0  0  0  0  0  0
    5.9399   49.6950  129.8952 C   0  0  0  0  0  0  0  0  0  0  0  0
    5.0695   50.6096  129.3583 C   0  0  0  0  0  0  0  0  0  0  0  0
    4.0840   50.2899  128.4697 C   0  0  0  0  0  0  0  0  0  0  0  0
    3.9884   48.9579  128.1144 C   0  0  0  0  0  0  0  0  0  0  0  0
    4.8731   48.0144  128.6576 C   0  0  0  0  0  0  0  0  0  0  0  0
    5.8481   48.3371  129.5377 C   0  0  0  0  0  0  0  0  0  0  0  0
    3.2182   51.2672  127.9323 N   0  0  0  0  0  0  0  0  0  0  0  0
    3.6760   52.4758  127.2604 C   0  0  0  0  0  0  0  0  0  0  0  0
    2.9079   52.7080  125.9743 C   0  0  0  0  0  0  0  0  0  0  0  0
    1.5195   52.3837  126.0483 N   0  0  0  0  0  0  0  0  0  0  0  0
    0.7170   53.3790  126.6964 C   0  0  0  0  0  0  0  0  0  0  0  0
    1.2898   51.0407  126.5834 C   0  0  0  0  0  0  0  0  0  0  0  0
    1.7855   51.1237  128.0366 C   0  0  0  0  0  0  0  0  0  0  0  0
    7.8157   51.1204  130.4325 C   0  0  0  0  0  0  0  0  0  0  0  0
    6.9242   50.0914  130.7982 O   0  0  0  0  0  0  0  0  0  0  0  0
   11.0634   45.3713  130.8266 N   0  0  0  0  0  0  0  0  0  0  0  0
   11.9951   45.8842  130.8244 H   0  0  0  0  0  0  0  0  0  0  0  0
   10.8756   44.2498  131.6487 C   0  0  0  0  0  0  0  0  0  0  0  0
   10.9740   42.9379  131.2431 C   0  0  0  0  0  0  0  0  0  0  0  0
   10.7123   41.8508  132.0954 C   0  0  0  0  0  0  0  0  0  0  0  0
   10.3410   42.1400  133.3918 C   0  0  0  0  0  0  0  0  0  0  0  0
   10.2355   43.4388  133.8217 C   0  0  0  0  0  0  0  0  0  0  0  0
   10.4948   44.5037  132.9808 C   0  0  0  0  0  0  0  0  0  0  0  0
   10.4105   46.1491  133.5374 S   0  0  0  0  0  0  0  0  0  0  0  0
   11.5635   46.9963  133.0841 O   0  0  0  0  0  0  0  0  0  0  0  0
    9.1968   46.7613  132.8097 O   0  0  0  0  0  0  0  0  0  0  0  0
   10.0414   46.2971  135.2459 C   0  0  0  0  0  0  0  0  0  0  0  0
   10.2208   44.9391  135.9399 C   0  0  0  0  0  0  0  0  0  0  0  0
    8.5643   46.6405  135.4719 C   0  0  0  0  0  0  0  0  0  0  0  0
 23 24  1  0  0  0
 24 10  1  0  0  0
 10 11  2  0  0  0
 11 12  1  0  0  0
 12 13  2  0  0  0
 13 14  1  0  0  0
 14 15  2  0  0  0
 15  8  1  0  0  0
  8  1  1  0  0  0
  1  2  2  0  0  0
  2  3  1  0  0  0
  3  4  2  0  0  0
  4  5  1  0  0  0
  4  6  1  0  0  0
  6 25  1  0  0  0
 25 27  1  0  0  0
 27 28  2  0  0  0
 28 29  1  0  0  0
 29 30  2  0  0  0
 30 31  1  0  0  0
 31 32  2  0  0  0
 32 33  1  0  0  0
 33 34  2  0  0  0
 33 35  2  0  0  0
 33 36  1  0  0  0
 36 37  1  0  0  0
 36 38  1  0  0  0
  6  7  2  0  0  0
 12 16  1  0  0  0
 16 17  1  0  0  0
 17 18  1  0  0  0
 18 19  1  0  0  0
 19 20  1  0  0  0
 19 21  1  0  0  0
 21 22  1  0  0  0
 15 10  1  0  0  0
  7  1  1  0  0  0
 22 16  1  0  0  0
 32 27  1  0  0  0
  8  9  1  0  0  0
 25 26  1  0  0  0
M  END
> <minimizedAffinity>
19.24705

> <CNNscore>
0.2021370679

> <CNNaffinity>
7.2561759949

> <CNN_VS>
1.4667421579

> <CNNaffinity_variance>
0.3379085362

$$$$
[H]c1nc(N([H])c2c([H])c([H])c(N3C([H])([H])C([H])([H])N(C([H])([H])[H])C([H])([H])C3([H])[H])c([H])c2OC([H])([H])[H])nc(N([H])c2c([H])c([H])c([H])c([H])c2S(=O)(=O)C([H])(C([H])([H])[H])C([H])([H])[H])c1Cl


 38 41  0  0  0  0  0  0  0  0999 V2000
   10.0946   44.8596  134.3097 C   0  0  0  0  0  0  0  0  0  0  0  0
   10.7097   44.5630  135.4543 N   0  0  0  0  0  0  0  0  0  0  0  0
   11.8809   43.9517  135.5665 C   0  0  0  0  0  0  0  0  0  0  0  0
   12.5384   43.5810  134.4149 C   0  0  0  0  0  0  0  0  0  0  0  0
   14.0896   42.7690  134.4905 Cl  0  0  0  0  0  0  0  0  0  0  0  0
   11.9544   43.8585  133.1521 C   0  0  0  0  0  0  0  0  0  0  0  0
   10.7861   44.4720  133.1953 N   0  0  0  0  0  0  0  0  0  0  0  0
    8.8485   45.5094  134.1590 N   0  0  0  0  0  0  0  0  0  0  0  0
    8.1474   45.2950  134.9536 H   0  0  0  0  0  0  0  0  0  0  0  0
    8.9781   47.6670  133.0979 C   0  0  0  0  0  0  0  0  0  0  0  0
    8.6115   48.5294  132.0958 C   0  0  0  0  0  0  0  0  0  0  0  0
    7.7483   48.2028  131.0902 C   0  0  0  0  0  0  0  0  0  0  0  0
    7.2341   46.9205  131.1170 C   0  0  0  0  0  0  0  0  0  0  0  0
    7.6020   46.0307  132.1372 C   0  0  0  0  0  0  0  0  0  0  0  0
    8.4583   46.3598  133.1311 C   0  0  0  0  0  0  0  0  0  0  0  0
    7.4090   49.1192  130.0711 N   0  0  0  0  0  0  0  0  0  0  0  0
    6.3096   48.9225  129.1359 C   0  0  0  0  0  0  0  0  0  0  0  0
    5.4837   50.1856  128.9931 C   0  0  0  0  0  0  0  0  0  0  0  0
    6.2451   51.3933  128.9960 N   0  0  0  0  0  0  0  0  0  0  0  0
    6.8896   51.6849  127.7493 C   0  0  0  0  0  0  0  0  0  0  0  0
    7.1624   51.4697  130.1342 C   0  0  0  0  0  0  0  0  0  0  0  0
    8.1679   50.3332  129.8854 C   0  0  0  0  0  0  0  0  0  0  0  0
   10.5907   49.2645  133.9263 C   0  0  0  0  0  0  0  0  0  0  0  0
    9.8659   48.0671  134.0944 O   0  0  0  0  0  0  0  0  0  0  0  0
   12.6749   43.4792  131.9960 N   0  0  0  0  0  0  0  0  0  0  0  0
   13.4692   42.7932  132.1684 H   0  0  0  0  0  0  0  0  0  0  0  0
   12.3905   43.9189  130.6942 C   0  0  0  0  0  0  0  0  0  0  0  0
   13.1860   44.7543  129.9426 C   0  0  0  0  0  0  0  0  0  0  0  0
   12.8210   45.2156  128.6657 C   0  0  0  0  0  0  0  0  0  0  0  0
   11.6050   44.7975  128.1670 C   0  0  0  0  0  0  0  0  0  0  0  0
   10.7933   43.9647  128.8953 C   0  0  0  0  0  0  0  0  0  0  0  0
   11.1567   43.5132  130.1493 C   0  0  0  0  0  0  0  0  0  0  0  0
   10.1523   42.4180  131.0526 S   0  0  0  0  0  0  0  0  0  0  0  0
   10.8996   41.2458  131.6184 O   0  0  0  0  0  0  0  0  0  0  0  0
    9.7109   43.2087  132.3004 O   0  0  0  0  0  0  0  0  0  0  0  0
    8.6623   41.9890  130.2325 C   0  0  0  0  0  0  0  0  0  0  0  0
    7.4779   42.1072  131.2027 C   0  0  0  0  0  0  0  0  0  0  0  0
    8.6579   40.5137  129.8146 C   0  0  0  0  0  0  0  0  0  0  0  0
 23 24  1  0  0  0
 24 10  1  0  0  0
 10 11  2  0  0  0
 11 12  1  0  0  0
 12 13  2  0  0  0
 13 14  1  0  0  0
 14 15  2  0  0  0
 15  8  1  0  0  0
  8  1  1  0  0  0
  1  2  2  0  0  0
  2  3  1  0  0  0
  3  4  2  0  0  0
  4  5  1  0  0  0
  4  6  1  0  0  0
  6 25  1  0  0  0
 25 27  1  0  0  0
 27 28  2  0  0  0
 28 29  1  0  0  0
 29 30  2  0  0  0
 30 31  1  0  0  0
 31 32  2  0  0  0
 32 33  1  0  0  0
 33 34  2  0  0  0
 33 35  2  0  0  0
 33 36  1  0  0  0
 36 37  1  0  0  0
 36 38  1  0  0  0
  6  7  2  0  0  0
 12 16  1  0  0  0
 16 17  1  0  0  0
 17 18  1  0  0  0
 18 19  1  0  0  0
 19 20  1  0  0  0
 19 21  1  0  0  0
 21 22  1  0  0  0
 15 10  1  0  0  0
  7  1  1  0  0  0
 22 16  1  0  0  0
 32 27  1  0  0  0
  8  9  1  0  0  0
 25 26  1  0  0  0
M  END
> <minimizedAffinity>
10.17925

> <CNNscore>
0.1504032165

> <CNNaffinity>
7.7102689743

> <CNN_VS>
1.1596492529

> <CNNaffinity_variance>
0.6512120962

$$$$
[H]c1nc(N([H])c2c([H])c([H])c(N3C([H])([H])C([H])([H])N(C([H])([H])[H])C([H])([H])C3([H])[H])c([H])c2OC([H])([H])[H])nc(N([H])c2c([H])c([H])c([H])c([H])c2S(=O)(=O)C([H])(C([H])([H])[H])C([H])([H])[H])c1Cl


 38 41  0  0  0  0  0  0  0  0999 V2000
   11.0932   43.5776  131.0280 C   0  0  0  0  0  0  0  0  0  0  0  0
   11.8610   42.5397  131.3589 N   0  0  0  0  0  0  0  0  0  0  0  0
   12.5942   42.4403  132.4591 C   0  0  0  0  0  0  0  0  0  0  0  0
   12.5777   43.4874  133.3531 C   0  0  0  0  0  0  0  0  0  0  0  0
   13.5237   43.4222  134.8270 Cl  0  0  0  0  0  0  0  0  0  0  0  0
   11.7868   44.6328  133.0790 C   0  0  0  0  0  0  0  0  0  0  0  0
   11.1100   44.5910  131.9462 N   0  0  0  0  0  0  0  0  0  0  0  0
   10.3020   43.7117  129.8645 N   0  0  0  0  0  0  0  0  0  0  0  0
   10.4483   42.9180  129.1452 H   0  0  0  0  0  0  0  0  0  0  0  0
    8.2335   44.8411  130.3585 C   0  0  0  0  0  0  0  0  0  0  0  0
    7.3194   45.8295  130.0943 C   0  0  0  0  0  0  0  0  0  0  0  0
    7.4562   46.7419  129.0884 C   0  0  0  0  0  0  0  0  0  0  0  0
    8.5943   46.6317  128.3124 C   0  0  0  0  0  0  0  0  0  0  0  0
    9.5353   45.6247  128.5737 C   0  0  0  0  0  0  0  0  0  0  0  0
    9.3946   44.7233  129.5722 C   0  0  0  0  0  0  0  0  0  0  0  0
    6.4955   47.7512  128.8608 N   0  0  0  0  0  0  0  0  0  0  0  0
    5.0588   47.5123  128.8312 C   0  0  0  0  0  0  0  0  0  0  0  0
    4.3164   48.5568  129.6410 C   0  0  0  0  0  0  0  0  0  0  0  0
    4.8490   49.8771  129.5330 N   0  0  0  0  0  0  0  0  0  0  0  0
    4.4814   50.5625  128.3290 C   0  0  0  0  0  0  0  0  0  0  0  0
    6.2904   49.9176  129.7850 C   0  0  0  0  0  0  0  0  0  0  0  0
    6.8994   49.1165  128.6224 C   0  0  0  0  0  0  0  0  0  0  0  0
    8.0689   44.4142  132.7312 C   0  0  0  0  0  0  0  0  0  0  0  0
    8.0304   43.9420  131.4034 O   0  0  0  0  0  0  0  0  0  0  0  0
   11.7834   45.6746  134.0352 N   0  0  0  0  0  0  0  0  0  0  0  0
   12.7468   45.9880  134.3592 H   0  0  0  0  0  0  0  0  0  0  0  0
   10.6313   46.3029  134.5319 C   0  0  0  0  0  0  0  0  0  0  0  0
    9.9795   45.9682  135.6974 C   0  0  0  0  0  0  0  0  0  0  0  0
    8.7901   46.5900  136.1158 C   0  0  0  0  0  0  0  0  0  0  0  0
    8.2735   47.5767  135.3024 C   0  0  0  0  0  0  0  0  0  0  0  0
    8.9034   47.9297  134.1355 C   0  0  0  0  0  0  0  0  0  0  0  0
   10.0727   47.3166  133.7292 C   0  0  0  0  0  0  0  0  0  0  0  0
   10.8992   47.7970  132.2765 S   0  0  0  0  0  0  0  0  0  0  0  0
   12.3633   47.4670  132.2815 O   0  0  0  0  0  0  0  0  0  0  0  0
   10.3236   46.8955  131.1659 O   0  0  0  0  0  0  0  0  0  0  0  0
   10.5364   49.4363  131.7685 C   0  0  0  0  0  0  0  0  0  0  0  0
    9.7038   50.1462  132.8459 C   0  0  0  0  0  0  0  0  0  0  0  0
    9.6347   49.4515  130.5284 C   0  0  0  0  0  0  0  0  0  0  0  0
 23 24  1  0  0  0
 24 10  1  0  0  0
 10 11  2  0  0  0
 11 12  1  0  0  0
 12 13  2  0  0  0
 13 14  1  0  0  0
 14 15  2  0  0  0
 15  8  1  0  0  0
  8  1  1  0  0  0
  1  2  2  0  0  0
  2  3  1  0  0  0
  3  4  2  0  0  0
  4  5  1  0  0  0
  4  6  1  0  0  0
  6 25  1  0  0  0
 25 27  1  0  0  0
 27 28  2  0  0  0
 28 29  1  0  0  0
 29 30  2  0  0  0
 30 31  1  0  0  0
 31 32  2  0  0  0
 32 33  1  0  0  0
 33 34  2  0  0  0
 33 35  2  0  0  0
 33 36  1  0  0  0
 36 37  1  0  0  0
 36 38  1  0  0  0
  6  7  2  0  0  0
 12 16  1  0  0  0
 16 17  1  0  0  0
 17 18  1  0  0  0
 18 19  1  0  0  0
 19 20  1  0  0  0
 19 21  1  0  0  0
 21 22  1  0  0  0
 15 10  1  0  0  0
  7  1  1  0  0  0
 22 16  1  0  0  0
 32 27  1  0  0  0
  8  9  1  0  0  0
 25 26  1  0  0  0
M  END
> <minimizedAffinity>
6.85676

> <CNNscore>
0.1392203569

> <CNNaffinity>
7.5356330872

> <CNN_VS>
1.0491135120

> <CNNaffinity_variance>
0.0630333200

$$$$
[H]c1nc(N([H])c2c([H])c([H])c(N3C([H])([H])C([H])([H])N(C([H])([H])[H])C([H])([H])C3([H])[H])c([H])c2OC([H])([H])[H])nc(N([H])c2c([H])c([H])c([H])c([H])c2S(=O)(=O)C([H])(C([H])([H])[H])C([H])([H])[H])c1Cl


 38 41  0  0  0  0  0  0  0  0999 V2000
    8.1057   48.8214  131.6007 C   0  0  0  0  0  0  0  0  0  0  0  0
    8.8032   49.4315  132.5585 N   0  0  0  0  0  0  0  0  0  0  0  0
    9.8047   48.8981  133.2444 C   0  0  0  0  0  0  0  0  0  0  0  0
   10.1750   47.6026  132.9609 C   0  0  0  0  0  0  0  0  0  0  0  0
   11.4898   46.8358  133.8297 Cl  0  0  0  0  0  0  0  0  0  0  0  0
    9.4849   46.8789  131.9546 C   0  0  0  0  0  0  0  0  0  0  0  0
    8.5104   47.5383  131.3557 N   0  0  0  0  0  0  0  0  0  0  0  0
    7.0352   49.3634  130.8536 N   0  0  0  0  0  0  0  0  0  0  0  0
    6.0794   48.9064  131.0689 H   0  0  0  0  0  0  0  0  0  0  0  0
    7.2864   50.0457  128.5581 C   0  0  0  0  0  0  0  0  0  0  0  0
    7.3490   51.0301  127.6044 C   0  0  0  0  0  0  0  0  0  0  0  0
    7.2345   52.3622  127.8787 C   0  0  0  0  0  0  0  0  0  0  0  0
    7.0457   52.7002  129.2052 C   0  0  0  0  0  0  0  0  0  0  0  0
    6.9805   51.7017  130.1885 C   0  0  0  0  0  0  0  0  0  0  0  0
    7.0943   50.3830  129.9107 C   0  0  0  0  0  0  0  0  0  0  0  0
    7.2921   53.3408  126.8626 N   0  0  0  0  0  0  0  0  0  0  0  0
    7.3906   54.7715  127.1185 C   0  0  0  0  0  0  0  0  0  0  0  0
    8.4443   55.4111  126.2362 C   0  0  0  0  0  0  0  0  0  0  0  0
    8.4970   54.8921  124.9072 N   0  0  0  0  0  0  0  0  0  0  0  0
    7.4755   55.3975  124.0378 C   0  0  0  0  0  0  0  0  0  0  0  0
    8.5825   53.4310  124.8837 C   0  0  0  0  0  0  0  0  0  0  0  0
    7.2395   52.9649  125.4698 C   0  0  0  0  0  0  0  0  0  0  0  0
    6.3573   47.8157  128.5066 C   0  0  0  0  0  0  0  0  0  0  0  0
    7.4110   48.7031  128.2071 O   0  0  0  0  0  0  0  0  0  0  0  0
    9.9131   45.5590  131.6822 N   0  0  0  0  0  0  0  0  0  0  0  0
   10.3237   45.0406  132.5151 H   0  0  0  0  0  0  0  0  0  0  0  0
    9.8029   44.9216  130.4370 C   0  0  0  0  0  0  0  0  0  0  0  0
    8.6764   44.9059  129.6457 C   0  0  0  0  0  0  0  0  0  0  0  0
    8.6009   44.1963  128.4344 C   0  0  0  0  0  0  0  0  0  0  0  0
    9.7205   43.4914  128.0446 C   0  0  0  0  0  0  0  0  0  0  0  0
   10.8562   43.4905  128.8147 C   0  0  0  0  0  0  0  0  0  0  0  0
   10.9260   44.1903  130.0037 C   0  0  0  0  0  0  0  0  0  0  0  0
   12.3807   44.2312  130.9557 S   0  0  0  0  0  0  0  0  0  0  0  0
   13.6368   44.1962  130.1349 O   0  0  0  0  0  0  0  0  0  0  0  0
   12.4032   45.6313  131.6013 O   0  0  0  0  0  0  0  0  0  0  0  0
   12.3737   43.1071  132.3023 C   0  0  0  0  0  0  0  0  0  0  0  0
   11.0830   42.2754  132.2832 C   0  0  0  0  0  0  0  0  0  0  0  0
   12.3245   43.8436  133.6462 C   0  0  0  0  0  0  0  0  0  0  0  0
 23 24  1  0  0  0
 24 10  1  0  0  0
 10 11  2  0  0  0
 11 12  1  0  0  0
 12 13  2  0  0  0
 13 14  1  0  0  0
 14 15  2  0  0  0
 15  8  1  0  0  0
  8  1  1  0  0  0
  1  2  2  0  0  0
  2  3  1  0  0  0
  3  4  2  0  0  0
  4  5  1  0  0  0
  4  6  1  0  0  0
  6 25  1  0  0  0
 25 27  1  0  0  0
 27 28  2  0  0  0
 28 29  1  0  0  0
 29 30  2  0  0  0
 30 31  1  0  0  0
 31 32  2  0  0  0
 32 33  1  0  0  0
 33 34  2  0  0  0
 33 35  2  0  0  0
 33 36  1  0  0  0
 36 37  1  0  0  0
 36 38  1  0  0  0
  6  7  2  0  0  0
 12 16  1  0  0  0
 16 17  1  0  0  0
 17 18  1  0  0  0
 18 19  1  0  0  0
 19 20  1  0  0  0
 19 21  1  0  0  0
 21 22  1  0  0  0
 15 10  1  0  0  0
  7  1  1  0  0  0
 22 16  1  0  0  0
 32 27  1  0  0  0
  8  9  1  0  0  0
 25 26  1  0  0  0
M  END
> <minimizedAffinity>
2.88570

> <CNNscore>
0.1244997904

> <CNNaffinity>
7.3312559128

> <CNN_VS>
0.9127398133

> <CNNaffinity_variance>
0.2584599555

$$$$
[H]c1nc(N([H])c2c([H])c([H])c(N3C([H])([H])C([H])([H])N(C([H])([H])[H])C([H])([H])C3([H])[H])c([H])c2OC([H])([H])[H])nc(N([H])c2c([H])c([H])c([H])c([H])c2S(=O)(=O)C([H])(C([H])([H])[H])C([H])([H])[H])c1Cl


 38 41  0  0  0  0  0  0  0  0999 V2000
    8.8375   43.1652  130.5603 C   0  0  0  0  0  0  0  0  0  0  0  0
    9.1050   41.8630  130.6554 N   0  0  0  0  0  0  0  0  0  0  0  0
    9.4542   41.2246  131.7637 C   0  0  0  0  0  0  0  0  0  0  0  0
    9.5563   41.9479  132.9308 C   0  0  0  0  0  0  0  0  0  0  0  0
   10.0138   41.1674  134.4318 Cl  0  0  0  0  0  0  0  0  0  0  0  0
    9.2887   43.3411  132.9196 C   0  0  0  0  0  0  0  0  0  0  0  0
    8.9522   43.8397  131.7444 N   0  0  0  0  0  0  0  0  0  0  0  0
    8.4634   43.8723  129.3950 N   0  0  0  0  0  0  0  0  0  0  0  0
    8.5156   43.2806  128.4917 H   0  0  0  0  0  0  0  0  0  0  0  0
    9.0294   46.2020  129.1706 C   0  0  0  0  0  0  0  0  0  0  0  0
    8.6554   47.5189  129.0808 C   0  0  0  0  0  0  0  0  0  0  0  0
    7.3591   47.9446  129.1142 C   0  0  0  0  0  0  0  0  0  0  0  0
    6.3955   46.9631  129.2474 C   0  0  0  0  0  0  0  0  0  0  0  0
    6.7669   45.6136  129.3404 C   0  0  0  0  0  0  0  0  0  0  0  0
    8.0534   45.1975  129.3064 C   0  0  0  0  0  0  0  0  0  0  0  0
    7.0193   49.3107  129.0052 N   0  0  0  0  0  0  0  0  0  0  0  0
    5.6513   49.8107  129.0237 C   0  0  0  0  0  0  0  0  0  0  0  0
    5.5225   51.0107  129.9408 C   0  0  0  0  0  0  0  0  0  0  0  0
    6.6359   51.9038  129.9057 N   0  0  0  0  0  0  0  0  0  0  0  0
    6.6493   52.7824  128.7733 C   0  0  0  0  0  0  0  0  0  0  0  0
    7.9112   51.2103  130.0941 C   0  0  0  0  0  0  0  0  0  0  0  0
    8.0425   50.3172  128.8493 C   0  0  0  0  0  0  0  0  0  0  0  0
   10.8602   45.1394  128.0052 C   0  0  0  0  0  0  0  0  0  0  0  0
   10.3736   45.8374  129.1293 O   0  0  0  0  0  0  0  0  0  0  0  0
    9.3849   44.0398  134.1453 N   0  0  0  0  0  0  0  0  0  0  0  0
    9.4744   43.4224  135.0067 H   0  0  0  0  0  0  0  0  0  0  0  0
    9.3958   45.4371  134.2726 C   0  0  0  0  0  0  0  0  0  0  0  0
    8.3020   46.2201  134.5659 C   0  0  0  0  0  0  0  0  0  0  0  0
    8.3567   47.6239  134.6183 C   0  0  0  0  0  0  0  0  0  0  0  0
    9.5739   48.2186  134.3591 C   0  0  0  0  0  0  0  0  0  0  0  0
   10.6796   47.4614  134.0644 C   0  0  0  0  0  0  0  0  0  0  0  0
   10.6212   46.0821  134.0152 C   0  0  0  0  0  0  0  0  0  0  0  0
   12.0324   45.1188  133.6913 S   0  0  0  0  0  0  0  0  0  0  0  0
   13.3183   45.7871  134.0818 O   0  0  0  0  0  0  0  0  0  0  0  0
   11.9345   43.9197  134.6556 O   0  0  0  0  0  0  0  0  0  0  0  0
   12.0509   44.4135  132.0853 C   0  0  0  0  0  0  0  0  0  0  0  0
   12.6346   42.9944  132.1434 C   0  0  0  0  0  0  0  0  0  0  0  0
   13.0022   45.1715  131.1518 C   0  0  0  0  0  0  0  0  0  0  0  0
 23 24  1  0  0  0
 24 10  1  0  0  0
 10 11  2  0  0  0
 11 12  1  0  0  0
 12 13  2  0  0  0
 13 14  1  0  0  0
 14 15  2  0  0  0
 15  8  1  0  0  0
  8  1  1  0  0  0
  1  2  2  0  0  0
  2  3  1  0  0  0
  3  4  2  0  0  0
  4  5  1  0  0  0
  4  6  1  0  0  0
  6 25  1  0  0  0
 25 27  1  0  0  0
 27 28  2  0  0  0
 28 29  1  0  0  0
 29 30  2  0  0  0
 30 31  1  0  0  0
 31 32  2  0  0  0
 32 33  1  0  0  0
 33 34  2  0  0  0
 33 35  2  0  0  0
 33 36  1  0  0  0
 36 37  1  0  0  0
 36 38  1  0  0  0
  6  7  2  0  0  0
 12 16  1  0  0  0
 16 17  1  0  0  0
 17 18  1  0  0  0
 18 19  1  0  0  0
 19 20  1  0  0  0
 19 21  1  0  0  0
 21 22  1  0  0  0
 15 10  1  0  0  0
  7  1  1  0  0  0
 22 16  1  0  0  0
 32 27  1  0  0  0
  8  9  1  0  0  0
 25 26  1  0  0  0
M  END
> <minimizedAffinity>
8.29650

> <CNNscore>
0.0897899792

> <CNNaffinity>
7.6514701843

> <CNN_VS>
0.6870253682

> <CNNaffinity_variance>
0.2484715730

$$$$
[H]c1nc(N([H])c2c([H])c([H])c(N3C([H])([H])C([H])([H])N(C([H])([H])[H])C([H])([H])C3([H])[H])c([H])c2OC([H])([H])[H])nc(N([H])c2c([H])c([H])c([H])c([H])c2S(=O)(=O)C([H])(C([H])([H])[H])C([H])([H])[H])c1Cl


 38 41  0  0  0  0  0  0  0  0999 V2000
    7.5327   46.9516  130.3642 C   0  0  0  0  0  0  0  0  0  0  0  0
    7.4749   46.3786  129.1622 N   0  0  0  0  0  0  0  0  0  0  0  0
    7.8692   45.1461  128.8738 C   0  0  0  0  0  0  0  0  0  0  0  0
    8.3871   44.3708  129.8870 C   0  0  0  0  0  0  0  0  0  0  0  0
    8.9278   42.7332  129.5754 Cl  0  0  0  0  0  0  0  0  0  0  0  0
    8.4851   44.9027  131.1986 C   0  0  0  0  0  0  0  0  0  0  0  0
    8.0537   46.1429  131.3362 N   0  0  0  0  0  0  0  0  0  0  0  0
    7.1207   48.2609  130.7014 N   0  0  0  0  0  0  0  0  0  0  0  0
    6.8241   48.3708  131.7352 H   0  0  0  0  0  0  0  0  0  0  0  0
    7.9695   50.4260  130.0770 C   0  0  0  0  0  0  0  0  0  0  0  0
    7.9378   51.5339  129.2683 C   0  0  0  0  0  0  0  0  0  0  0  0
    7.0611   51.6952  128.2347 C   0  0  0  0  0  0  0  0  0  0  0  0
    6.1689   50.6617  128.0215 C   0  0  0  0  0  0  0  0  0  0  0  0
    6.1925   49.5245  128.8426 C   0  0  0  0  0  0  0  0  0  0  0  0
    7.0639   49.3700  129.8654 C   0  0  0  0  0  0  0  0  0  0  0  0
    7.0730   52.8478  127.4193 N   0  0  0  0  0  0  0  0  0  0  0  0
    6.9714   54.2069  127.9335 C   0  0  0  0  0  0  0  0  0  0  0  0
    8.0008   55.1122  127.2867 C   0  0  0  0  0  0  0  0  0  0  0  0
    8.2196   54.8612  125.8983 N   0  0  0  0  0  0  0  0  0  0  0  0
    7.2122   55.4064  125.0366 C   0  0  0  0  0  0  0  0  0  0  0  0
    8.4893   53.4489  125.6242 C   0  0  0  0  0  0  0  0  0  0  0  0
    7.1746   52.7369  125.9835 C   0  0  0  0  0  0  0  0  0  0  0  0
   10.0643   49.5670  130.9212 C   0  0  0  0  0  0  0  0  0  0  0  0
    8.8930   50.3270  131.1157 O   0  0  0  0  0  0  0  0  0  0  0  0
    9.0031   44.0637  132.2122 N   0  0  0  0  0  0  0  0  0  0  0  0
    9.0078   43.0267  131.9760 H   0  0  0  0  0  0  0  0  0  0  0  0
    9.5116   44.5114  133.4409 C   0  0  0  0  0  0  0  0  0  0  0  0
    8.7766   45.1152  134.4362 C   0  0  0  0  0  0  0  0  0  0  0  0
    9.3500   45.6031  135.6234 C   0  0  0  0  0  0  0  0  0  0  0  0
   10.7135   45.4583  135.7722 C   0  0  0  0  0  0  0  0  0  0  0  0
   11.4694   44.8600  134.7956 C   0  0  0  0  0  0  0  0  0  0  0  0
   10.9011   44.3810  133.6311 C   0  0  0  0  0  0  0  0  0  0  0  0
   11.8496   43.5778  132.4148 S   0  0  0  0  0  0  0  0  0  0  0  0
   12.8963   42.6612  132.9777 O   0  0  0  0  0  0  0  0  0  0  0  0
   10.8705   42.6231  131.7024 O   0  0  0  0  0  0  0  0  0  0  0  0
   12.4382   44.6503  131.1577 C   0  0  0  0  0  0  0  0  0  0  0  0
   11.7974   46.0374  131.3106 C   0  0  0  0  0  0  0  0  0  0  0  0
   11.9907   44.1825  129.7678 C   0  0  0  0  0  0  0  0  0  0  0  0
 23 24  1  0  0  0
 24 10  1  0  0  0
 10 11  2  0  0  0
 11 12  1  0  0  0
 12 13  2  0  0  0
 13 14  1  0  0  0
 14 15  2  0  0  0
 15  8  1  0  0  0
  8  1  1  0  0  0
  1  2  2  0  0  0
  2  3  1  0  0  0
  3  4  2  0  0  0
  4  5  1  0  0  0
  4  6  1  0  0  0
  6 25  1  0  0  0
 25 27  1  0  0  0
 27 28  2  0  0  0
 28 29  1  0  0  0
 29 30  2  0  0  0
 30 31  1  0  0  0
 31 32  2  0  0  0
 32 33  1  0  0  0
 33 34  2  0  0  0
 33 35  2  0  0  0
 33 36  1  0  0  0
 36 37  1  0  0  0
 36 38  1  0  0  0
  6  7  2  0  0  0
 12 16  1  0  0  0
 16 17  1  0  0  0
 17 18  1  0  0  0
 18 19  1  0  0  0
 19 20  1  0  0  0
 19 21  1  0  0  0
 21 22  1  0  0  0
 15 10  1  0  0  0
  7  1  1  0  0  0
 22 16  1  0  0  0
 32 27  1  0  0  0
  8  9  1  0  0  0
 25 26  1  0  0  0
M  END
> <minimizedAffinity>
7.30061

> <CNNscore>
0.0787890032

> <CNNaffinity>
7.5797562599

> <CNN_VS>
0.5972014666

> <CNNaffinity_variance>
0.5903384089

$$$$
[H]c1nc(N([H])c2c([H])c([H])c(N3C([H])([H])C([H])([H])N(C([H])([H])[H])C([H])([H])C3([H])[H])c([H])c2OC([H])([H])[H])nc(N([H])c2c([H])c([H])c([H])c([H])c2S(=O)(=O)C([H])(C([H])([H])[H])C([H])([H])[H])c1Cl


 38 41  0  0  0  0  0  0  0  0999 V2000
   11.7016   46.6069  133.4345 C   0  0  0  0  0  0  0  0  0  0  0  0
   12.2911   46.0857  134.5102 N   0  0  0  0  0  0  0  0  0  0  0  0
   12.7915   44.8612  134.6003 C   0  0  0  0  0  0  0  0  0  0  0  0
   12.7068   44.0372  133.5005 C   0  0  0  0  0  0  0  0  0  0  0  0
   13.3472   42.4066  133.5509 Cl  0  0  0  0  0  0  0  0  0  0  0  0
   12.0941   44.5122  132.3123 C   0  0  0  0  0  0  0  0  0  0  0  0
   11.6418   45.7512  132.3693 N   0  0  0  0  0  0  0  0  0  0  0  0
   11.1599   47.9063  133.3089 N   0  0  0  0  0  0  0  0  0  0  0  0
   11.6164   48.6332  133.9662 H   0  0  0  0  0  0  0  0  0  0  0  0
    8.8739   47.7175  132.5762 C   0  0  0  0  0  0  0  0  0  0  0  0
    7.8485   48.1028  131.7502 C   0  0  0  0  0  0  0  0  0  0  0  0
    7.9689   49.0609  130.7856 C   0  0  0  0  0  0  0  0  0  0  0  0
    9.2108   49.6546  130.6639 C   0  0  0  0  0  0  0  0  0  0  0  0
   10.2663   49.2680  131.5032 C   0  0  0  0  0  0  0  0  0  0  0  0
   10.1410   48.3179  132.4577 C   0  0  0  0  0  0  0  0  0  0  0  0
    6.8820   49.4353  129.9659 N   0  0  0  0  0  0  0  0  0  0  0  0
    6.2517   48.5474  128.9982 C   0  0  0  0  0  0  0  0  0  0  0  0
    4.7409   48.6145  129.1010 C   0  0  0  0  0  0  0  0  0  0  0  0
    4.2229   49.9209  129.3530 N   0  0  0  0  0  0  0  0  0  0  0  0
    4.1726   50.7664  128.1966 C   0  0  0  0  0  0  0  0  0  0  0  0
    4.8744   50.5670  130.4935 C   0  0  0  0  0  0  0  0  0  0  0  0
    6.3282   50.7667  130.0343 C   0  0  0  0  0  0  0  0  0  0  0  0
    8.5204   47.1130  134.8889 C   0  0  0  0  0  0  0  0  0  0  0  0
    8.6807   46.7313  133.5414 O   0  0  0  0  0  0  0  0  0  0  0  0
   12.0485   43.6391  131.2008 N   0  0  0  0  0  0  0  0  0  0  0  0
   12.4688   42.6768  131.3698 H   0  0  0  0  0  0  0  0  0  0  0  0
   11.4798   43.9539  129.9573 C   0  0  0  0  0  0  0  0  0  0  0  0
   12.0322   44.7942  129.0170 C   0  0  0  0  0  0  0  0  0  0  0  0
   11.3874   45.1254  127.8125 C   0  0  0  0  0  0  0  0  0  0  0  0
   10.1452   44.5699  127.5877 C   0  0  0  0  0  0  0  0  0  0  0  0
    9.5721   43.7291  128.5083 C   0  0  0  0  0  0  0  0  0  0  0  0
   10.2101   43.4058  129.6901 C   0  0  0  0  0  0  0  0  0  0  0  0
    9.5077   42.3011  130.8350 S   0  0  0  0  0  0  0  0  0  0  0  0
    8.9148   41.0764  130.2017 O   0  0  0  0  0  0  0  0  0  0  0  0
   10.6959   41.7536  131.6511 O   0  0  0  0  0  0  0  0  0  0  0  0
    8.4631   43.0758  132.0121 C   0  0  0  0  0  0  0  0  0  0  0  0
    8.1834   44.5255  131.5901 C   0  0  0  0  0  0  0  0  0  0  0  0
    9.1559   43.2094  133.3734 C   0  0  0  0  0  0  0  0  0  0  0  0
 23 24  1  0  0  0
 24 10  1  0  0  0
 10 11  2  0  0  0
 11 12  1  0  0  0
 12 13  2  0  0  0
 13 14  1  0  0  0
 14 15  2  0  0  0
 15  8  1  0  0  0
  8  1  1  0  0  0
  1  2  2  0  0  0
  2  3  1  0  0  0
  3  4  2  0  0  0
  4  5  1  0  0  0
  4  6  1  0  0  0
  6 25  1  0  0  0
 25 27  1  0  0  0
 27 28  2  0  0  0
 28 29  1  0  0  0
 29 30  2  0  0  0
 30 31  1  0  0  0
 31 32  2  0  0  0
 32 33  1  0  0  0
 33 34  2  0  0  0
 33 35  2  0  0  0
 33 36  1  0  0  0
 36 37  1  0  0  0
 36 38  1  0  0  0
  6  7  2  0  0  0
 12 16  1  0  0  0
 16 17  1  0  0  0
 17 18  1  0  0  0
 18 19  1  0  0  0
 19 20  1  0  0  0
 19 21  1  0  0  0
 21 22  1  0  0  0
 15 10  1  0  0  0
  7  1  1  0  0  0
 22 16  1  0  0  0
 32 27  1  0  0  0
  8  9  1  0  0  0
 25 26  1  0  0  0
M  END
> <minimizedAffinity>
5.50021

> <CNNscore>
0.0745490044

> <CNNaffinity>
7.8259286880

> <CNN_VS>
0.5834152102

> <CNNaffinity_variance>
0.3900280595

$$$$
[H]c1c([H])c(-c2nc(N([H])c3c([H])c([H])c(C(=O)N4C([H])([H])C([H])([H])OC([H])([H])C4([H])[H])c([H])c3[H])c(=O)n(C([H])([H])[H])c2[H])c(C([H])([H])[H])c(N([H])C(=O)c2c([H])c([H])c(C(C([H])([H])[H])(C([H])([H])[H])C([H])([H])[H])c([H])c2[H])c1[H]


 45 49  0  0  0  0  0  0  0  0999 V2000
   10.7641   43.0982  132.3958 C   0  0  0  0  0  0  0  0  0  0  0  0
   10.9719   41.7098  132.3860 C   0  0  0  0  0  0  0  0  0  0  0  0
   10.8362   40.9980  131.2465 N   0  0  0  0  0  0  0  0  0  0  0  0
   11.0681   39.5588  131.3249 C   0  0  0  0  0  0  0  0  0  0  0  0
   10.4983   41.6248  130.1082 C   0  0  0  0  0  0  0  0  0  0  0  0
   10.3681   40.9503  129.0306 O   0  0  0  0  0  0  0  0  0  0  0  0
   10.2974   42.9841  130.1198 C   0  0  0  0  0  0  0  0  0  0  0  0
   10.4277   43.6999  131.2387 N   0  0  0  0  0  0  0  0  0  0  0  0
   11.1592   45.9786  132.4385 C   0  0  0  0  0  0  0  0  0  0  0  0
   11.0303   45.1773  133.6762 C   0  0  0  0  0  0  0  0  0  0  0  0
   11.0565   45.9039  134.8869 C   0  0  0  0  0  0  0  0  0  0  0  0
   10.8413   45.2047  136.0300 C   0  0  0  0  0  0  0  0  0  0  0  0
   10.6074   43.8429  136.0300 C   0  0  0  0  0  0  0  0  0  0  0  0
   10.5950   43.1797  134.8191 C   0  0  0  0  0  0  0  0  0  0  0  0
   10.8096   43.8487  133.6284 C   0  0  0  0  0  0  0  0  0  0  0  0
   11.3235   47.2750  134.8450 N   0  0  0  0  0  0  0  0  0  0  0  0
   10.5492   48.2540  134.2257 C   0  0  0  0  0  0  0  0  0  0  0  0
    9.4786   48.0754  133.6023 O   0  0  0  0  0  0  0  0  0  0  0  0
   12.2105   47.6118  135.3591 H   0  0  0  0  0  0  0  0  0  0  0  0
   11.0768   49.6524  134.3292 C   0  0  0  0  0  0  0  0  0  0  0  0
   10.3655   50.7052  133.8120 C   0  0  0  0  0  0  0  0  0  0  0  0
   10.8445   52.0085  133.9437 C   0  0  0  0  0  0  0  0  0  0  0  0
   12.0497   52.2811  134.5989 C   0  0  0  0  0  0  0  0  0  0  0  0
   12.7335   51.2009  135.1014 C   0  0  0  0  0  0  0  0  0  0  0  0
   12.2604   49.8995  134.9727 C   0  0  0  0  0  0  0  0  0  0  0  0
   12.5464   53.6696  134.7295 C   0  0  0  0  0  0  0  0  0  0  0  0
   13.8510   53.8734  133.9957 C   0  0  0  0  0  0  0  0  0  0  0  0
   11.5239   54.6615  134.2141 C   0  0  0  0  0  0  0  0  0  0  0  0
   12.7165   53.9603  136.2112 C   0  0  0  0  0  0  0  0  0  0  0  0
    9.8778   43.6611  128.9056 N   0  0  0  0  0  0  0  0  0  0  0  0
    9.9442   43.1305  128.0313 H   0  0  0  0  0  0  0  0  0  0  0  0
    9.4042   45.0004  128.9774 C   0  0  0  0  0  0  0  0  0  0  0  0
   10.1358   46.0967  128.6118 C   0  0  0  0  0  0  0  0  0  0  0  0
    9.6797   47.3795  128.7274 C   0  0  0  0  0  0  0  0  0  0  0  0
    8.3949   47.6627  129.2446 C   0  0  0  0  0  0  0  0  0  0  0  0
    7.6613   46.5723  129.6107 C   0  0  0  0  0  0  0  0  0  0  0  0
    8.1368   45.2502  129.4884 C   0  0  0  0  0  0  0  0  0  0  0  0
    7.9503   49.0445  129.3203 C   0  0  0  0  0  0  0  0  0  0  0  0
    8.9339   49.9316  129.4121 O   0  0  0  0  0  0  0  0  0  0  0  0
    6.7026   49.6143  129.3163 N   0  0  0  0  0  0  0  0  0  0  0  0
    6.6162   51.0843  129.3792 C   0  0  0  0  0  0  0  0  0  0  0  0
    5.7302   51.4261  130.5558 C   0  0  0  0  0  0  0  0  0  0  0  0
    4.4887   50.8531  130.4361 O   0  0  0  0  0  0  0  0  0  0  0  0
    4.3213   49.9766  129.4006 C   0  0  0  0  0  0  0  0  0  0  0  0
    5.4453   48.9441  129.2781 C   0  0  0  0  0  0  0  0  0  0  0  0
  9 10  1  0  0  0
 10 11  2  0  0  0
 11 16  1  0  0  0
 16 17  1  0  0  0
 17 18  2  0  0  0
 17 20  1  0  0  0
 20 21  2  0  0  0
 21 22  1  0  0  0
 22 23  2  0  0  0
 23 24  1  0  0  0
 24 25  2  0  0  0
 23 26  1  0  0  0
 26 27  1  0  0  0
 26 28  1  0  0  0
 26 29  1  0  0  0
 11 12  1  0  0  0
 12 13  2  0  0  0
 13 14  1  0  0  0
 14 15  2  0  0  0
 15  1  1  0  0  0
  1  2  2  0  0  0
  2  3  1  0  0  0
  3  4  1  0  0  0
  3  5  1  0  0  0
  5  6  2  0  0  0
  5  7  1  0  0  0
  7 30  1  0  0  0
 30 32  1  0  0  0
 32 33  2  0  0  0
 33 34  1  0  0  0
 34 35  2  0  0  0
 35 36  1  0  0  0
 36 37  2  0  0  0
 35 38  1  0  0  0
 38 39  2  0  0  0
 38 40  1  0  0  0
 40 41  1  0  0  0
 41 42  1  0  0  0
 42 43  1  0  0  0
 43 44  1  0  0  0
 44 45  1  0  0  0
  7  8  2  0  0  0
 15 10  1  0  0  0
  8  1  1  0  0  0
 25 20  1  0  0  0
 37 32  1  0  0  0
 45 40  1  0  0  0
 16 19  1  0  0  0
 30 31  1  0  0  0
M  END
> <minimizedAffinity>
40.06709

> <CNNscore>
0.4756872952

> <CNNaffinity>
7.8197507858

> <CNN_VS>
3.7197561264

> <CNNaffinity_variance>
0.6983302236

$$$$
[H]c1c([H])c(-c2nc(N([H])c3c([H])c([H])c(C(=O)N4C([H])([H])C([H])([H])OC([H])([H])C4([H])[H])c([H])c3[H])c(=O)n(C([H])([H])[H])c2[H])c(C([H])([H])[H])c(N([H])C(=O)c2c([H])c([H])c(C(C([H])([H])[H])(C([H])([H])[H])C([H])([H])[H])c([H])c2[H])c1[H]


 45 49  0  0  0  0  0  0  0  0999 V2000
   11.3102   45.3205  134.1001 C   0  0  0  0  0  0  0  0  0  0  0  0
   12.5779   45.0364  134.6321 C   0  0  0  0  0  0  0  0  0  0  0  0
   13.4072   46.0317  135.0131 N   0  0  0  0  0  0  0  0  0  0  0  0
   14.7080   45.6488  135.5539 C   0  0  0  0  0  0  0  0  0  0  0  0
   13.0155   47.3093  134.8820 C   0  0  0  0  0  0  0  0  0  0  0  0
   13.8015   48.2509  135.2410 O   0  0  0  0  0  0  0  0  0  0  0  0
   11.7734   47.5849  134.3630 C   0  0  0  0  0  0  0  0  0  0  0  0
   10.9438   46.6113  133.9820 N   0  0  0  0  0  0  0  0  0  0  0  0
   11.9220   43.8727  131.6539 C   0  0  0  0  0  0  0  0  0  0  0  0
   10.7015   43.6078  132.4482 C   0  0  0  0  0  0  0  0  0  0  0  0
    9.8721   42.5670  131.9758 C   0  0  0  0  0  0  0  0  0  0  0  0
    8.7996   42.2387  132.7400 C   0  0  0  0  0  0  0  0  0  0  0  0
    8.5143   42.8833  133.9284 C   0  0  0  0  0  0  0  0  0  0  0  0
    9.3559   43.8961  134.3435 C   0  0  0  0  0  0  0  0  0  0  0  0
   10.4603   44.2664  133.5990 C   0  0  0  0  0  0  0  0  0  0  0  0
   10.1807   41.9596  130.7556 N   0  0  0  0  0  0  0  0  0  0  0  0
    9.5107   42.1356  129.5466 C   0  0  0  0  0  0  0  0  0  0  0  0
    8.5184   42.8708  129.3432 O   0  0  0  0  0  0  0  0  0  0  0  0
   11.0350   41.3004  130.7449 H   0  0  0  0  0  0  0  0  0  0  0  0
   10.0521   41.3507  128.3909 C   0  0  0  0  0  0  0  0  0  0  0  0
   10.7235   41.9814  127.3744 C   0  0  0  0  0  0  0  0  0  0  0  0
   11.2568   41.2408  126.3196 C   0  0  0  0  0  0  0  0  0  0  0  0
   11.1264   39.8494  126.2647 C   0  0  0  0  0  0  0  0  0  0  0  0
   10.4464   39.2549  127.2996 C   0  0  0  0  0  0  0  0  0  0  0  0
    9.9127   39.9887  128.3535 C   0  0  0  0  0  0  0  0  0  0  0  0
   11.6964   39.0768  125.1377 C   0  0  0  0  0  0  0  0  0  0  0  0
   10.6624   38.7801  124.0772 C   0  0  0  0  0  0  0  0  0  0  0  0
   12.8594   39.8154  124.5078 C   0  0  0  0  0  0  0  0  0  0  0  0
   12.2646   37.7866  125.7048 C   0  0  0  0  0  0  0  0  0  0  0  0
   11.3642   48.9643  134.1664 N   0  0  0  0  0  0  0  0  0  0  0  0
   11.8561   49.6773  134.7141 H   0  0  0  0  0  0  0  0  0  0  0  0
   10.3223   49.2621  133.2450 C   0  0  0  0  0  0  0  0  0  0  0  0
    9.6126   48.3191  132.5536 C   0  0  0  0  0  0  0  0  0  0  0  0
    8.6434   48.6253  131.6404 C   0  0  0  0  0  0  0  0  0  0  0  0
    8.3049   49.9655  131.3441 C   0  0  0  0  0  0  0  0  0  0  0  0
    9.0101   50.9097  132.0314 C   0  0  0  0  0  0  0  0  0  0  0  0
   10.0090   50.5880  132.9734 C   0  0  0  0  0  0  0  0  0  0  0  0
    7.2472   50.2334  130.3838 C   0  0  0  0  0  0  0  0  0  0  0  0
    6.9733   51.5217  130.2165 O   0  0  0  0  0  0  0  0  0  0  0  0
    6.4705   49.4075  129.6117 N   0  0  0  0  0  0  0  0  0  0  0  0
    5.4906   50.0321  128.7051 C   0  0  0  0  0  0  0  0  0  0  0  0
    4.1417   49.4301  129.0280 C   0  0  0  0  0  0  0  0  0  0  0  0
    4.1533   48.0642  128.8934 O   0  0  0  0  0  0  0  0  0  0  0  0
    5.3698   47.4871  128.6579 C   0  0  0  0  0  0  0  0  0  0  0  0
    6.4787   47.9824  129.5903 C   0  0  0  0  0  0  0  0  0  0  0  0
  9 10  1  0  0  0
 10 11  2  0  0  0
 11 16  1  0  0  0
 16 17  1  0  0  0
 17 18  2  0  0  0
 17 20  1  0  0  0
 20 21  2  0  0  0
 21 22  1  0  0  0
 22 23  2  0  0  0
 23 24  1  0  0  0
 24 25  2  0  0  0
 23 26  1  0  0  0
 26 27  1  0  0  0
 26 28  1  0  0  0
 26 29  1  0  0  0
 11 12  1  0  0  0
 12 13  2  0  0  0
 13 14  1  0  0  0
 14 15  2  0  0  0
 15  1  1  0  0  0
  1  2  2  0  0  0
  2  3  1  0  0  0
  3  4  1  0  0  0
  3  5  1  0  0  0
  5  6  2  0  0  0
  5  7  1  0  0  0
  7 30  1  0  0  0
 30 32  1  0  0  0
 32 33  2  0  0  0
 33 34  1  0  0  0
 34 35  2  0  0  0
 35 36  1  0  0  0
 36 37  2  0  0  0
 35 38  1  0  0  0
 38 39  2  0  0  0
 38 40  1  0  0  0
 40 41  1  0  0  0
 41 42  1  0  0  0
 42 43  1  0  0  0
 43 44  1  0  0  0
 44 45  1  0  0  0
  7  8  2  0  0  0
 15 10  1  0  0  0
  8  1  1  0  0  0
 25 20  1  0  0  0
 37 32  1  0  0  0
 45 40  1  0  0  0
 16 19  1  0  0  0
 30 31  1  0  0  0
M  END
> <minimizedAffinity>
39.31155

> <CNNscore>
0.3515209556

> <CNNaffinity>
7.4478921890

> <CNN_VS>
2.6180901527

> <CNNaffinity_variance>
1.0293748379

$$$$
[H]c1c([H])c(-c2nc(N([H])c3c([H])c([H])c(C(=O)N4C([H])([H])C([H])([H])OC([H])([H])C4([H])[H])c([H])c3[H])c(=O)n(C([H])([H])[H])c2[H])c(C([H])([H])[H])c(N([H])C(=O)c2c([H])c([H])c(C(C([H])([H])[H])(C([H])([H])[H])C([H])([H])[H])c([H])c2[H])c1[H]


 45 49  0  0  0  0  0  0  0  0999 V2000
    9.3217   46.8866  132.6046 C   0  0  0  0  0  0  0  0  0  0  0  0
   10.0267   47.4168  133.6967 C   0  0  0  0  0  0  0  0  0  0  0  0
   10.3742   48.7213  133.7283 N   0  0  0  0  0  0  0  0  0  0  0  0
   11.1080   49.1901  134.9001 C   0  0  0  0  0  0  0  0  0  0  0  0
   10.0420   49.5222  132.7031 C   0  0  0  0  0  0  0  0  0  0  0  0
   10.3728   50.7562  132.7328 O   0  0  0  0  0  0  0  0  0  0  0  0
    9.3501   49.0014  131.6362 C   0  0  0  0  0  0  0  0  0  0  0  0
    9.0006   47.7141  131.5916 N   0  0  0  0  0  0  0  0  0  0  0  0
   10.4137   45.2130  130.4924 C   0  0  0  0  0  0  0  0  0  0  0  0
    9.4972   44.6858  131.5282 C   0  0  0  0  0  0  0  0  0  0  0  0
    9.2240   43.3018  131.4634 C   0  0  0  0  0  0  0  0  0  0  0  0
    8.4664   42.7759  132.4590 C   0  0  0  0  0  0  0  0  0  0  0  0
    7.9738   43.5439  133.4967 C   0  0  0  0  0  0  0  0  0  0  0  0
    8.2680   44.8928  133.5112 C   0  0  0  0  0  0  0  0  0  0  0  0
    9.0352   45.4741  132.5189 C   0  0  0  0  0  0  0  0  0  0  0  0
    9.7184   42.5665  130.3826 N   0  0  0  0  0  0  0  0  0  0  0  0
    9.3186   42.6737  129.0521 C   0  0  0  0  0  0  0  0  0  0  0  0
    8.4497   43.4493  128.5939 O   0  0  0  0  0  0  0  0  0  0  0  0
   10.5013   41.8557  130.5978 H   0  0  0  0  0  0  0  0  0  0  0  0
   10.0131   41.7531  128.0956 C   0  0  0  0  0  0  0  0  0  0  0  0
   10.8877   42.2492  127.1624 C   0  0  0  0  0  0  0  0  0  0  0  0
   11.5587   41.3835  126.2989 C   0  0  0  0  0  0  0  0  0  0  0  0
   11.3646   39.9996  126.3555 C   0  0  0  0  0  0  0  0  0  0  0  0
   10.4802   39.5417  127.3016 C   0  0  0  0  0  0  0  0  0  0  0  0
    9.8086   40.4006  128.1649 C   0  0  0  0  0  0  0  0  0  0  0  0
   12.0827   39.0932  125.4311 C   0  0  0  0  0  0  0  0  0  0  0  0
   13.2066   39.7984  124.7092 C   0  0  0  0  0  0  0  0  0  0  0  0
   12.6399   37.8947  126.1716 C   0  0  0  0  0  0  0  0  0  0  0  0
   11.0686   38.5500  124.4384 C   0  0  0  0  0  0  0  0  0  0  0  0
    9.0355   49.8477  130.4988 N   0  0  0  0  0  0  0  0  0  0  0  0
    9.8151   50.3527  130.0659 H   0  0  0  0  0  0  0  0  0  0  0  0
    7.6910   49.9396  130.0439 C   0  0  0  0  0  0  0  0  0  0  0  0
    7.0687   48.9889  129.2826 C   0  0  0  0  0  0  0  0  0  0  0  0
    5.7894   49.1137  128.8188 C   0  0  0  0  0  0  0  0  0  0  0  0
    5.0100   50.2588  129.1012 C   0  0  0  0  0  0  0  0  0  0  0  0
    5.6265   51.2100  129.8604 C   0  0  0  0  0  0  0  0  0  0  0  0
    6.9469   51.0756  130.3371 C   0  0  0  0  0  0  0  0  0  0  0  0
    3.6455   50.3271  128.6050 C   0  0  0  0  0  0  0  0  0  0  0  0
    2.8845   49.2962  128.9526 O   0  0  0  0  0  0  0  0  0  0  0  0
    2.9866   51.2563  127.8408 N   0  0  0  0  0  0  0  0  0  0  0  0
    1.5634   51.0178  127.5412 C   0  0  0  0  0  0  0  0  0  0  0  0
    1.4126   51.0685  126.0376 C   0  0  0  0  0  0  0  0  0  0  0  0
    1.8406   52.2688  125.5275 O   0  0  0  0  0  0  0  0  0  0  0  0
    2.4543   53.1179  126.4055 C   0  0  0  0  0  0  0  0  0  0  0  0
    3.5255   52.4450  127.2683 C   0  0  0  0  0  0  0  0  0  0  0  0
  9 10  1  0  0  0
 10 11  2  0  0  0
 11 16  1  0  0  0
 16 17  1  0  0  0
 17 18  2  0  0  0
 17 20  1  0  0  0
 20 21  2  0  0  0
 21 22  1  0  0  0
 22 23  2  0  0  0
 23 24  1  0  0  0
 24 25  2  0  0  0
 23 26  1  0  0  0
 26 27  1  0  0  0
 26 28  1  0  0  0
 26 29  1  0  0  0
 11 12  1  0  0  0
 12 13  2  0  0  0
 13 14  1  0  0  0
 14 15  2  0  0  0
 15  1  1  0  0  0
  1  2  2  0  0  0
  2  3  1  0  0  0
  3  4  1  0  0  0
  3  5  1  0  0  0
  5  6  2  0  0  0
  5  7  1  0  0  0
  7 30  1  0  0  0
 30 32  1  0  0  0
 32 33  2  0  0  0
 33 34  1  0  0  0
 34 35  2  0  0  0
 35 36  1  0  0  0
 36 37  2  0  0  0
 35 38  1  0  0  0
 38 39  2  0  0  0
 38 40  1  0  0  0
 40 41  1  0  0  0
 41 42  1  0  0  0
 42 43  1  0  0  0
 43 44  1  0  0  0
 44 45  1  0  0  0
  7  8  2  0  0  0
 15 10  1  0  0  0
  8  1  1  0  0  0
 25 20  1  0  0  0
 37 32  1  0  0  0
 45 40  1  0  0  0
 16 19  1  0  0  0
 30 31  1  0  0  0
M  END
> <minimizedAffinity>
37.11963

> <CNNscore>
0.2972194254

> <CNNaffinity>
7.3663430214

> <CNN_VS>
2.1894202232

> <CNNaffinity_variance>
0.7072592378

$$$$
[H]c1c([H])c(-c2nc(N([H])c3c([H])c([H])c(C(=O)N4C([H])([H])C([H])([H])OC([H])([H])C4([H])[H])c([H])c3[H])c(=O)n(C([H])([H])[H])c2[H])c(C([H])([H])[H])c(N([H])C(=O)c2c([H])c([H])c(C(C([H])([H])[H])(C([H])([H])[H])C([H])([H])[H])c([H])c2[H])c1[H]


 45 49  0  0  0  0  0  0  0  0999 V2000
   10.0185   46.7846  132.2436 C   0  0  0  0  0  0  0  0  0  0  0  0
   10.6733   47.8168  132.9340 C   0  0  0  0  0  0  0  0  0  0  0  0
   10.1715   49.0704  132.9425 N   0  0  0  0  0  0  0  0  0  0  0  0
   10.9165   50.0844  133.6829 C   0  0  0  0  0  0  0  0  0  0  0  0
    9.0321   49.3342  132.2829 C   0  0  0  0  0  0  0  0  0  0  0  0
    8.5587   50.5212  132.2898 O   0  0  0  0  0  0  0  0  0  0  0  0
    8.3918   48.3218  131.6096 C   0  0  0  0  0  0  0  0  0  0  0  0
    8.8767   47.0785  131.5924 N   0  0  0  0  0  0  0  0  0  0  0  0
    9.6753   45.1102  129.8913 C   0  0  0  0  0  0  0  0  0  0  0  0
   10.4243   44.6572  131.0849 C   0  0  0  0  0  0  0  0  0  0  0  0
   11.0128   43.3767  130.9945 C   0  0  0  0  0  0  0  0  0  0  0  0
   11.7868   42.9793  132.0360 C   0  0  0  0  0  0  0  0  0  0  0  0
   11.9999   43.7764  133.1443 C   0  0  0  0  0  0  0  0  0  0  0  0
   11.3988   45.0188  133.1838 C   0  0  0  0  0  0  0  0  0  0  0  0
   10.6013   45.4671  132.1474 C   0  0  0  0  0  0  0  0  0  0  0  0
   10.7498   42.5915  129.8687 N   0  0  0  0  0  0  0  0  0  0  0  0
   10.7610   43.0127  128.5405 C   0  0  0  0  0  0  0  0  0  0  0  0
   11.0118   44.1665  128.1254 O   0  0  0  0  0  0  0  0  0  0  0  0
   10.5328   41.5492  130.0449 H   0  0  0  0  0  0  0  0  0  0  0  0
   10.4329   41.9579  127.5284 C   0  0  0  0  0  0  0  0  0  0  0  0
    9.2769   42.0332  126.7937 C   0  0  0  0  0  0  0  0  0  0  0  0
    8.9948   41.0678  125.8274 C   0  0  0  0  0  0  0  0  0  0  0  0
    9.8699   40.0055  125.5789 C   0  0  0  0  0  0  0  0  0  0  0  0
   11.0155   39.9636  126.3357 C   0  0  0  0  0  0  0  0  0  0  0  0
   11.3014   40.9236  127.3005 C   0  0  0  0  0  0  0  0  0  0  0  0
    9.5563   38.9872  124.5510 C   0  0  0  0  0  0  0  0  0  0  0  0
    9.6651   39.5460  123.1518 C   0  0  0  0  0  0  0  0  0  0  0  0
   10.4708   37.7865  124.6813 C   0  0  0  0  0  0  0  0  0  0  0  0
    8.1474   38.4837  124.8165 C   0  0  0  0  0  0  0  0  0  0  0  0
    7.1895   48.6104  130.8481 N   0  0  0  0  0  0  0  0  0  0  0  0
    6.3938   47.9778  130.9788 H   0  0  0  0  0  0  0  0  0  0  0  0
    7.1661   49.7313  129.9728 C   0  0  0  0  0  0  0  0  0  0  0  0
    7.8391   49.7943  128.7837 C   0  0  0  0  0  0  0  0  0  0  0  0
    7.8392   50.8960  127.9755 C   0  0  0  0  0  0  0  0  0  0  0  0
    7.1291   52.0676  128.3240 C   0  0  0  0  0  0  0  0  0  0  0  0
    6.4561   52.0097  129.5093 C   0  0  0  0  0  0  0  0  0  0  0  0
    6.4589   50.8695  130.3394 C   0  0  0  0  0  0  0  0  0  0  0  0
    7.1418   53.2009  127.4140 C   0  0  0  0  0  0  0  0  0  0  0  0
    6.7011   54.3348  127.9458 O   0  0  0  0  0  0  0  0  0  0  0  0
    7.5226   53.3273  126.1023 N   0  0  0  0  0  0  0  0  0  0  0  0
    7.4286   54.6614  125.4830 C   0  0  0  0  0  0  0  0  0  0  0  0
    6.5860   54.5128  124.2363 C   0  0  0  0  0  0  0  0  0  0  0  0
    7.1227   53.5923  123.3711 O   0  0  0  0  0  0  0  0  0  0  0  0
    8.1933   52.8778  123.8314 C   0  0  0  0  0  0  0  0  0  0  0  0
    7.9914   52.2986  125.2343 C   0  0  0  0  0  0  0  0  0  0  0  0
  9 10  1  0  0  0
 10 11  2  0  0  0
 11 16  1  0  0  0
 16 17  1  0  0  0
 17 18  2  0  0  0
 17 20  1  0  0  0
 20 21  2  0  0  0
 21 22  1  0  0  0
 22 23  2  0  0  0
 23 24  1  0  0  0
 24 25  2  0  0  0
 23 26  1  0  0  0
 26 27  1  0  0  0
 26 28  1  0  0  0
 26 29  1  0  0  0
 11 12  1  0  0  0
 12 13  2  0  0  0
 13 14  1  0  0  0
 14 15  2  0  0  0
 15  1  1  0  0  0
  1  2  2  0  0  0
  2  3  1  0  0  0
  3  4  1  0  0  0
  3  5  1  0  0  0
  5  6  2  0  0  0
  5  7  1  0  0  0
  7 30  1  0  0  0
 30 32  1  0  0  0
 32 33  2  0  0  0
 33 34  1  0  0  0
 34 35  2  0  0  0
 35 36  1  0  0  0
 36 37  2  0  0  0
 35 38  1  0  0  0
 38 39  2  0  0  0
 38 40  1  0  0  0
 40 41  1  0  0  0
 41 42  1  0  0  0
 42 43  1  0  0  0
 43 44  1  0  0  0
 44 45  1  0  0  0
  7  8  2  0  0  0
 15 10  1  0  0  0
  8  1  1  0  0  0
 25 20  1  0  0  0
 37 32  1  0  0  0
 45 40  1  0  0  0
 16 19  1  0  0  0
 30 31  1  0  0  0
M  END
> <minimizedAffinity>
36.15213

> <CNNscore>
0.2880948484

> <CNNaffinity>
7.2257318497

> <CNN_VS>
2.0816960335

> <CNNaffinity_variance>
0.5875714421

$$$$
[H]c1c([H])c(-c2nc(N([H])c3c([H])c([H])c(C(=O)N4C([H])([H])C([H])([H])OC([H])([H])C4([H])[H])c([H])c3[H])c(=O)n(C([H])([H])[H])c2[H])c(C([H])([H])[H])c(N([H])C(=O)c2c([H])c([H])c(C(C([H])([H])[H])(C([H])([H])[H])C([H])([H])[H])c([H])c2[H])c1[H]


 45 49  0  0  0  0  0  0  0  0999 V2000
   12.6641   44.4328  131.0163 C   0  0  0  0  0  0  0  0  0  0  0  0
   13.9317   43.9173  130.7027 C   0  0  0  0  0  0  0  0  0  0  0  0
   14.2726   43.6495  129.4238 N   0  0  0  0  0  0  0  0  0  0  0  0
   15.6095   43.1133  129.1858 C   0  0  0  0  0  0  0  0  0  0  0  0
   13.3891   43.8788  128.4390 C   0  0  0  0  0  0  0  0  0  0  0  0
   13.7116   43.6234  127.2291 O   0  0  0  0  0  0  0  0  0  0  0  0
   12.1497   44.3854  128.7482 C   0  0  0  0  0  0  0  0  0  0  0  0
   11.7994   44.6542  130.0077 N   0  0  0  0  0  0  0  0  0  0  0  0
   11.1555   46.7684  131.8669 C   0  0  0  0  0  0  0  0  0  0  0  0
   11.5932   45.7187  132.8142 C   0  0  0  0  0  0  0  0  0  0  0  0
   11.1869   45.8903  134.1557 C   0  0  0  0  0  0  0  0  0  0  0  0
   11.4907   44.8925  135.0241 C   0  0  0  0  0  0  0  0  0  0  0  0
   12.1679   43.7534  134.6327 C   0  0  0  0  0  0  0  0  0  0  0  0
   12.5449   43.6367  133.3096 C   0  0  0  0  0  0  0  0  0  0  0  0
   12.2584   44.6268  132.3883 C   0  0  0  0  0  0  0  0  0  0  0  0
   10.5284   47.0693  134.5156 N   0  0  0  0  0  0  0  0  0  0  0  0
    9.1921   47.3818  134.2741 C   0  0  0  0  0  0  0  0  0  0  0  0
    8.3492   46.6593  133.6960 O   0  0  0  0  0  0  0  0  0  0  0  0
   11.1095   47.8052  135.0497 H   0  0  0  0  0  0  0  0  0  0  0  0
    8.7472   48.7260  134.7637 C   0  0  0  0  0  0  0  0  0  0  0  0
    7.9123   48.8313  135.8470 C   0  0  0  0  0  0  0  0  0  0  0  0
    7.5310   50.0867  136.3203 C   0  0  0  0  0  0  0  0  0  0  0  0
    7.9816   51.2637  135.7140 C   0  0  0  0  0  0  0  0  0  0  0  0
    8.8143   51.1170  134.6313 C   0  0  0  0  0  0  0  0  0  0  0  0
    9.1974   49.8677  134.1555 C   0  0  0  0  0  0  0  0  0  0  0  0
    7.5670   52.5893  136.2264 C   0  0  0  0  0  0  0  0  0  0  0  0
    6.1437   52.9217  135.8448 C   0  0  0  0  0  0  0  0  0  0  0  0
    7.7080   52.6559  137.7333 C   0  0  0  0  0  0  0  0  0  0  0  0
    8.5264   53.6226  135.6602 C   0  0  0  0  0  0  0  0  0  0  0  0
   11.1692   44.5839  127.6957 N   0  0  0  0  0  0  0  0  0  0  0  0
   11.3675   44.1507  126.7883 H   0  0  0  0  0  0  0  0  0  0  0  0
   10.0026   45.3535  127.9602 C   0  0  0  0  0  0  0  0  0  0  0  0
    9.9331   46.7140  127.8376 C   0  0  0  0  0  0  0  0  0  0  0  0
    8.8158   47.4413  128.1370 C   0  0  0  0  0  0  0  0  0  0  0  0
    7.6342   46.8214  128.6038 C   0  0  0  0  0  0  0  0  0  0  0  0
    7.6987   45.4643  128.7278 C   0  0  0  0  0  0  0  0  0  0  0  0
    8.8544   44.7184  128.4167 C   0  0  0  0  0  0  0  0  0  0  0  0
    6.4663   47.6409  128.8815 C   0  0  0  0  0  0  0  0  0  0  0  0
    5.3437   47.1996  128.3268 O   0  0  0  0  0  0  0  0  0  0  0  0
    6.2975   48.7908  129.6101 N   0  0  0  0  0  0  0  0  0  0  0  0
    4.9379   49.3511  129.7079 C   0  0  0  0  0  0  0  0  0  0  0  0
    5.0154   50.7864  129.2387 C   0  0  0  0  0  0  0  0  0  0  0  0
    5.9140   51.5121  129.9804 O   0  0  0  0  0  0  0  0  0  0  0  0
    6.6732   50.8087  130.8733 C   0  0  0  0  0  0  0  0  0  0  0  0
    7.3024   49.5425  130.2857 C   0  0  0  0  0  0  0  0  0  0  0  0
  9 10  1  0  0  0
 10 11  2  0  0  0
 11 16  1  0  0  0
 16 17  1  0  0  0
 17 18  2  0  0  0
 17 20  1  0  0  0
 20 21  2  0  0  0
 21 22  1  0  0  0
 22 23  2  0  0  0
 23 24  1  0  0  0
 24 25  2  0  0  0
 23 26  1  0  0  0
 26 27  1  0  0  0
 26 28  1  0  0  0
 26 29  1  0  0  0
 11 12  1  0  0  0
 12 13  2  0  0  0
 13 14  1  0  0  0
 14 15  2  0  0  0
 15  1  1  0  0  0
  1  2  2  0  0  0
  2  3  1  0  0  0
  3  4  1  0  0  0
  3  5  1  0  0  0
  5  6  2  0  0  0
  5  7  1  0  0  0
  7 30  1  0  0  0
 30 32  1  0  0  0
 32 33  2  0  0  0
 33 34  1  0  0  0
 34 35  2  0  0  0
 35 36  1  0  0  0
 36 37  2  0  0  0
 35 38  1  0  0  0
 38 39  2  0  0  0
 38 40  1  0  0  0
 40 41  1  0  0  0
 41 42  1  0  0  0
 42 43  1  0  0  0
 43 44  1  0  0  0
 44 45  1  0  0  0
  7  8  2  0  0  0
 15 10  1  0  0  0
  8  1  1  0  0  0
 25 20  1  0  0  0
 37 32  1  0  0  0
 45 40  1  0  0  0
 16 19  1  0  0  0
 30 31  1  0  0  0
M  END
> <minimizedAffinity>
42.13553

> <CNNscore>
0.2375980914

> <CNNaffinity>
7.3572416306

> <CNN_VS>
1.7480665445

> <CNNaffinity_variance>
0.4413720071

$$$$
[H]c1c([H])c(-c2nc(N([H])c3c([H])c([H])c(C(=O)N4C([H])([H])C([H])([H])OC([H])([H])C4([H])[H])c([H])c3[H])c(=O)n(C([H])([H])[H])c2[H])c(C([H])([H])[H])c(N([H])C(=O)c2c([H])c([H])c(C(C([H])([H])[H])(C([H])([H])[H])C([H])([H])[H])c([H])c2[H])c1[H]


 45 49  0  0  0  0  0  0  0  0999 V2000
   10.7624   43.4484  134.2880 C   0  0  0  0  0  0  0  0  0  0  0  0
   11.2973   42.7758  135.3981 C   0  0  0  0  0  0  0  0  0  0  0  0
   11.3125   43.3561  136.6173 N   0  0  0  0  0  0  0  0  0  0  0  0
   11.8891   42.5880  137.7169 C   0  0  0  0  0  0  0  0  0  0  0  0
   10.8102   44.5917  136.7711 C   0  0  0  0  0  0  0  0  0  0  0  0
   10.8266   45.1411  137.9248 O   0  0  0  0  0  0  0  0  0  0  0  0
   10.2852   45.2473  135.6835 C   0  0  0  0  0  0  0  0  0  0  0  0
   10.2641   44.6860  134.4728 N   0  0  0  0  0  0  0  0  0  0  0  0
   10.8558   45.0937  131.8924 C   0  0  0  0  0  0  0  0  0  0  0  0
   10.8387   43.6146  131.8387 C   0  0  0  0  0  0  0  0  0  0  0  0
   10.9253   43.0433  130.5502 C   0  0  0  0  0  0  0  0  0  0  0  0
   11.0112   41.6906  130.4803 C   0  0  0  0  0  0  0  0  0  0  0  0
   11.0134   40.8914  131.6075 C   0  0  0  0  0  0  0  0  0  0  0  0
   10.9238   41.5006  132.8434 C   0  0  0  0  0  0  0  0  0  0  0  0
   10.8338   42.8747  132.9650 C   0  0  0  0  0  0  0  0  0  0  0  0
   10.8925   43.8853  129.4353 N   0  0  0  0  0  0  0  0  0  0  0  0
    9.7549   44.3795  128.8002 C   0  0  0  0  0  0  0  0  0  0  0  0
    8.5654   44.1576  129.1203 O   0  0  0  0  0  0  0  0  0  0  0  0
   11.8450   44.1981  129.0361 H   0  0  0  0  0  0  0  0  0  0  0  0
   10.0109   45.2601  127.6154 C   0  0  0  0  0  0  0  0  0  0  0  0
    9.8669   44.7727  126.3413 C   0  0  0  0  0  0  0  0  0  0  0  0
   10.0713   45.6075  125.2428 C   0  0  0  0  0  0  0  0  0  0  0  0
   10.4249   46.9512  125.4023 C   0  0  0  0  0  0  0  0  0  0  0  0
   10.5611   47.4014  126.6929 C   0  0  0  0  0  0  0  0  0  0  0  0
   10.3587   46.5732  127.7916 C   0  0  0  0  0  0  0  0  0  0  0  0
   10.6402   47.8249  124.2267 C   0  0  0  0  0  0  0  0  0  0  0  0
    9.3379   48.3417  123.6619 C   0  0  0  0  0  0  0  0  0  0  0  0
   11.5314   48.9981  124.5796 C   0  0  0  0  0  0  0  0  0  0  0  0
   11.3907   47.0154  123.1826 C   0  0  0  0  0  0  0  0  0  0  0  0
    9.7907   46.6048  135.8298 N   0  0  0  0  0  0  0  0  0  0  0  0
    9.7110   46.9698  136.7842 H   0  0  0  0  0  0  0  0  0  0  0  0
    9.4446   47.3537  134.6712 C   0  0  0  0  0  0  0  0  0  0  0  0
    8.4073   47.0441  133.8352 C   0  0  0  0  0  0  0  0  0  0  0  0
    8.1156   47.7508  132.7027 C   0  0  0  0  0  0  0  0  0  0  0  0
    8.8843   48.8713  132.3129 C   0  0  0  0  0  0  0  0  0  0  0  0
    9.9203   49.1841  133.1437 C   0  0  0  0  0  0  0  0  0  0  0  0
   10.2164   48.4516  134.3118 C   0  0  0  0  0  0  0  0  0  0  0  0
    8.5128   49.6026  131.1129 C   0  0  0  0  0  0  0  0  0  0  0  0
    9.1893   50.7298  130.9276 O   0  0  0  0  0  0  0  0  0  0  0  0
    7.5915   49.3530  130.1279 N   0  0  0  0  0  0  0  0  0  0  0  0
    7.4957   50.3139  129.0146 C   0  0  0  0  0  0  0  0  0  0  0  0
    6.0527   50.7589  128.9362 C   0  0  0  0  0  0  0  0  0  0  0  0
    5.2052   49.6941  128.7571 O   0  0  0  0  0  0  0  0  0  0  0  0
    5.7665   48.4504  128.8380 C   0  0  0  0  0  0  0  0  0  0  0  0
    6.6770   48.2622  130.0546 C   0  0  0  0  0  0  0  0  0  0  0  0
  9 10  1  0  0  0
 10 11  2  0  0  0
 11 16  1  0  0  0
 16 17  1  0  0  0
 17 18  2  0  0  0
 17 20  1  0  0  0
 20 21  2  0  0  0
 21 22  1  0  0  0
 22 23  2  0  0  0
 23 24  1  0  0  0
 24 25  2  0  0  0
 23 26  1  0  0  0
 26 27  1  0  0  0
 26 28  1  0  0  0
 26 29  1  0  0  0
 11 12  1  0  0  0
 12 13  2  0  0  0
 13 14  1  0  0  0
 14 15  2  0  0  0
 15  1  1  0  0  0
  1  2  2  0  0  0
  2  3  1  0  0  0
  3  4  1  0  0  0
  3  5  1  0  0  0
  5  6  2  0  0  0
  5  7  1  0  0  0
  7 30  1  0  0  0
 30 32  1  0  0  0
 32 33  2  0  0  0
 33 34  1  0  0  0
 34 35  2  0  0  0
 35 36  1  0  0  0
 36 37  2  0  0  0
 35 38  1  0  0  0
 38 39  2  0  0  0
 38 40  1  0  0  0
 40 41  1  0  0  0
 41 42  1  0  0  0
 42 43  1  0  0  0
 43 44  1  0  0  0
 44 45  1  0  0  0
  7  8  2  0  0  0
 15 10  1  0  0  0
  8  1  1  0  0  0
 25 20  1  0  0  0
 37 32  1  0  0  0
 45 40  1  0  0  0
 16 19  1  0  0  0
 30 31  1  0  0  0
M  END
> <minimizedAffinity>
42.69573

> <CNNscore>
0.2294973135

> <CNNaffinity>
7.6103124619

> <CNN_VS>
1.7465462685

> <CNNaffinity_variance>
0.2889206707

$$$$
[H]c1c([H])c(-c2nc(N([H])c3c([H])c([H])c(C(=O)N4C([H])([H])C([H])([H])OC([H])([H])C4([H])[H])c([H])c3[H])c(=O)n(C([H])([H])[H])c2[H])c(C([H])([H])[H])c(N([H])C(=O)c2c([H])c([H])c(C(C([H])([H])[H])(C([H])([H])[H])C([H])([H])[H])c([H])c2[H])c1[H]


 45 49  0  0  0  0  0  0  0  0999 V2000
    7.1921   49.3665  129.7467 C   0  0  0  0  0  0  0  0  0  0  0  0
    6.7549   50.5793  129.1909 C   0  0  0  0  0  0  0  0  0  0  0  0
    7.2471   51.7581  129.6286 N   0  0  0  0  0  0  0  0  0  0  0  0
    6.7367   52.9719  128.9981 C   0  0  0  0  0  0  0  0  0  0  0  0
    8.1661   51.7718  130.6075 C   0  0  0  0  0  0  0  0  0  0  0  0
    8.6302   52.8878  131.0226 O   0  0  0  0  0  0  0  0  0  0  0  0
    8.5940   50.5833  131.1485 C   0  0  0  0  0  0  0  0  0  0  0  0
    8.1159   49.4111  130.7259 N   0  0  0  0  0  0  0  0  0  0  0  0
    8.7989   47.0318  129.0970 C   0  0  0  0  0  0  0  0  0  0  0  0
    7.3213   47.0269  129.0101 C   0  0  0  0  0  0  0  0  0  0  0  0
    6.7292   45.7986  128.6428 C   0  0  0  0  0  0  0  0  0  0  0  0
    5.3733   45.7410  128.6521 C   0  0  0  0  0  0  0  0  0  0  0  0
    4.5902   46.8249  129.0004 C   0  0  0  0  0  0  0  0  0  0  0  0
    5.2195   48.0035  129.3487 C   0  0  0  0  0  0  0  0  0  0  0  0
    6.5977   48.1108  129.3535 C   0  0  0  0  0  0  0  0  0  0  0  0
    7.5565   44.7354  128.2712 N   0  0  0  0  0  0  0  0  0  0  0  0
    8.4503   44.0514  129.0927 C   0  0  0  0  0  0  0  0  0  0  0  0
    8.6646   44.2686  130.3066 O   0  0  0  0  0  0  0  0  0  0  0  0
    7.4832   44.3989  127.2485 H   0  0  0  0  0  0  0  0  0  0  0  0
    9.2219   42.9520  128.4289 C   0  0  0  0  0  0  0  0  0  0  0  0
    9.2614   41.6970  128.9815 C   0  0  0  0  0  0  0  0  0  0  0  0
    9.9512   40.6686  128.3398 C   0  0  0  0  0  0  0  0  0  0  0  0
   10.6163   40.8803  127.1278 C   0  0  0  0  0  0  0  0  0  0  0  0
   10.5552   42.1501  126.6073 C   0  0  0  0  0  0  0  0  0  0  0  0
    9.8689   43.1790  127.2432 C   0  0  0  0  0  0  0  0  0  0  0  0
   11.3459   39.7793  126.4590 C   0  0  0  0  0  0  0  0  0  0  0  0
   12.4984   40.2901  125.6266 C   0  0  0  0  0  0  0  0  0  0  0  0
   11.8665   38.7804  127.4721 C   0  0  0  0  0  0  0  0  0  0  0  0
   10.3510   39.0289  125.5895 C   0  0  0  0  0  0  0  0  0  0  0  0
    9.5461   50.5919  132.2449 N   0  0  0  0  0  0  0  0  0  0  0  0
    9.7301   51.4949  132.6933 H   0  0  0  0  0  0  0  0  0  0  0  0
   10.1698   49.3767  132.6416 C   0  0  0  0  0  0  0  0  0  0  0  0
   10.7760   48.5048  131.7795 C   0  0  0  0  0  0  0  0  0  0  0  0
   11.3331   47.3209  132.1732 C   0  0  0  0  0  0  0  0  0  0  0  0
   11.3178   46.9113  133.5261 C   0  0  0  0  0  0  0  0  0  0  0  0
   10.7141   47.7777  134.3900 C   0  0  0  0  0  0  0  0  0  0  0  0
   10.1413   48.9989  133.9782 C   0  0  0  0  0  0  0  0  0  0  0  0
   11.9490   45.6545  133.8931 C   0  0  0  0  0  0  0  0  0  0  0  0
   13.0498   45.7877  134.6232 O   0  0  0  0  0  0  0  0  0  0  0  0
   11.6263   44.3477  133.6289 N   0  0  0  0  0  0  0  0  0  0  0  0
   12.4909   43.2967  134.1944 C   0  0  0  0  0  0  0  0  0  0  0  0
   12.9420   42.4268  133.0429 C   0  0  0  0  0  0  0  0  0  0  0  0
   11.8743   41.8911  132.3666 O   0  0  0  0  0  0  0  0  0  0  0  0
   10.6363   42.3424  132.7303 C   0  0  0  0  0  0  0  0  0  0  0  0
   10.5424   43.8669  132.8382 C   0  0  0  0  0  0  0  0  0  0  0  0
  9 10  1  0  0  0
 10 11  2  0  0  0
 11 16  1  0  0  0
 16 17  1  0  0  0
 17 18  2  0  0  0
 17 20  1  0  0  0
 20 21  2  0  0  0
 21 22  1  0  0  0
 22 23  2  0  0  0
 23 24  1  0  0  0
 24 25  2  0  0  0
 23 26  1  0  0  0
 26 27  1  0  0  0
 26 28  1  0  0  0
 26 29  1  0  0  0
 11 12  1  0  0  0
 12 13  2  0  0  0
 13 14  1  0  0  0
 14 15  2  0  0  0
 15  1  1  0  0  0
  1  2  2  0  0  0
  2  3  1  0  0  0
  3  4  1  0  0  0
  3  5  1  0  0  0
  5  6  2  0  0  0
  5  7  1  0  0  0
  7 30  1  0  0  0
 30 32  1  0  0  0
 32 33  2  0  0  0
 33 34  1  0  0  0
 34 35  2  0  0  0
 35 36  1  0  0  0
 36 37  2  0  0  0
 35 38  1  0  0  0
 38 39  2  0  0  0
 38 40  1  0  0  0
 40 41  1  0  0  0
 41 42  1  0  0  0
 42 43  1  0  0  0
 43 44  1  0  0  0
 44 45  1  0  0  0
  7  8  2  0  0  0
 15 10  1  0  0  0
  8  1  1  0  0  0
 25 20  1  0  0  0
 37 32  1  0  0  0
 45 40  1  0  0  0
 16 19  1  0  0  0
 30 31  1  0  0  0
M  END
> <minimizedAffinity>
41.16013

> <CNNscore>
0.2232913971

> <CNNaffinity>
7.4498672485

> <CNN_VS>
1.6634912491

> <CNNaffinity_variance>
0.7362505198

$$$$
[H]c1c([H])c(-c2nc(N([H])c3c([H])c([H])c(C(=O)N4C([H])([H])C([H])([H])OC([H])([H])C4([H])[H])c([H])c3[H])c(=O)n(C([H])([H])[H])c2[H])c(C([H])([H])[H])c(N([H])C(=O)c2c([H])c([H])c(C(C([H])([H])[H])(C([H])([H])[H])C([H])([H])[H])c([H])c2[H])c1[H]


 45 49  0  0  0  0  0  0  0  0999 V2000
    8.9275   46.1255  133.3068 C   0  0  0  0  0  0  0  0  0  0  0  0
    8.4981   46.7710  134.4772 C   0  0  0  0  0  0  0  0  0  0  0  0
    8.5842   48.1131  134.5983 N   0  0  0  0  0  0  0  0  0  0  0  0
    8.1175   48.7034  135.8494 C   0  0  0  0  0  0  0  0  0  0  0  0
    9.0865   48.8404  133.5876 C   0  0  0  0  0  0  0  0  0  0  0  0
    9.1694   50.1104  133.7036 O   0  0  0  0  0  0  0  0  0  0  0  0
    9.5042   48.2066  132.4421 C   0  0  0  0  0  0  0  0  0  0  0  0
    9.4253   46.8810  132.3089 N   0  0  0  0  0  0  0  0  0  0  0  0
   10.0106   44.7338  130.9949 C   0  0  0  0  0  0  0  0  0  0  0  0
    9.3913   44.0183  132.1330 C   0  0  0  0  0  0  0  0  0  0  0  0
    9.4050   42.6083  132.0561 C   0  0  0  0  0  0  0  0  0  0  0  0
    8.9328   41.9279  133.1313 C   0  0  0  0  0  0  0  0  0  0  0  0
    8.4543   42.5679  134.2585 C   0  0  0  0  0  0  0  0  0  0  0  0
    8.4606   43.9484  134.2812 C   0  0  0  0  0  0  0  0  0  0  0  0
    8.9311   44.6849  133.2101 C   0  0  0  0  0  0  0  0  0  0  0  0
    9.8719   42.0010  130.8872 N   0  0  0  0  0  0  0  0  0  0  0  0
    9.1877   41.8887  129.6786 C   0  0  0  0  0  0  0  0  0  0  0  0
    8.0377   42.3152  129.4294 O   0  0  0  0  0  0  0  0  0  0  0  0
   10.8702   41.5926  130.9189 H   0  0  0  0  0  0  0  0  0  0  0  0
    9.9256   41.1781  128.5853 C   0  0  0  0  0  0  0  0  0  0  0  0
    9.9101   39.8084  128.5107 C   0  0  0  0  0  0  0  0  0  0  0  0
   10.5686   39.1544  127.4697 C   0  0  0  0  0  0  0  0  0  0  0  0
   11.2572   39.8641  126.4807 C   0  0  0  0  0  0  0  0  0  0  0  0
   11.2513   41.2334  126.5908 C   0  0  0  0  0  0  0  0  0  0  0  0
   10.5963   41.8903  127.6268 C   0  0  0  0  0  0  0  0  0  0  0  0
   11.9531   39.1560  125.3825 C   0  0  0  0  0  0  0  0  0  0  0  0
   12.5670   37.8569  125.8487 C   0  0  0  0  0  0  0  0  0  0  0  0
   11.0070   38.8765  124.2329 C   0  0  0  0  0  0  0  0  0  0  0  0
   13.0238   40.0876  124.8395 C   0  0  0  0  0  0  0  0  0  0  0  0
   10.0996   48.9798  131.3668 N   0  0  0  0  0  0  0  0  0  0  0  0
   11.1092   48.8762  131.2240 H   0  0  0  0  0  0  0  0  0  0  0  0
    9.2777   49.8292  130.5756 C   0  0  0  0  0  0  0  0  0  0  0  0
    8.9660   51.1207  130.9010 C   0  0  0  0  0  0  0  0  0  0  0  0
    8.1400   51.9085  130.1499 C   0  0  0  0  0  0  0  0  0  0  0  0
    7.5404   51.4291  128.9629 C   0  0  0  0  0  0  0  0  0  0  0  0
    7.8483   50.1413  128.6341 C   0  0  0  0  0  0  0  0  0  0  0  0
    8.7021   49.3328  129.4127 C   0  0  0  0  0  0  0  0  0  0  0  0
    6.6915   52.3192  128.1885 C   0  0  0  0  0  0  0  0  0  0  0  0
    5.3935   52.1904  128.4362 O   0  0  0  0  0  0  0  0  0  0  0  0
    6.9728   53.2729  127.2436 N   0  0  0  0  0  0  0  0  0  0  0  0
    5.8447   54.0273  126.6689 C   0  0  0  0  0  0  0  0  0  0  0  0
    5.9278   53.8733  125.1671 C   0  0  0  0  0  0  0  0  0  0  0  0
    7.1316   54.3179  124.6799 O   0  0  0  0  0  0  0  0  0  0  0  0
    8.0741   54.6601  125.6090 C   0  0  0  0  0  0  0  0  0  0  0  0
    8.2517   53.6209  126.7195 C   0  0  0  0  0  0  0  0  0  0  0  0
  9 10  1  0  0  0
 10 11  2  0  0  0
 11 16  1  0  0  0
 16 17  1  0  0  0
 17 18  2  0  0  0
 17 20  1  0  0  0
 20 21  2  0  0  0
 21 22  1  0  0  0
 22 23  2  0  0  0
 23 24  1  0  0  0
 24 25  2  0  0  0
 23 26  1  0  0  0
 26 27  1  0  0  0
 26 28  1  0  0  0
 26 29  1  0  0  0
 11 12  1  0  0  0
 12 13  2  0  0  0
 13 14  1  0  0  0
 14 15  2  0  0  0
 15  1  1  0  0  0
  1  2  2  0  0  0
  2  3  1  0  0  0
  3  4  1  0  0  0
  3  5  1  0  0  0
  5  6  2  0  0  0
  5  7  1  0  0  0
  7 30  1  0  0  0
 30 32  1  0  0  0
 32 33  2  0  0  0
 33 34  1  0  0  0
 34 35  2  0  0  0
 35 36  1  0  0  0
 36 37  2  0  0  0
 35 38  1  0  0  0
 38 39  2  0  0  0
 38 40  1  0  0  0
 40 41  1  0  0  0
 41 42  1  0  0  0
 42 43  1  0  0  0
 43 44  1  0  0  0
 44 45  1  0  0  0
  7  8  2  0  0  0
 15 10  1  0  0  0
  8  1  1  0  0  0
 25 20  1  0  0  0
 37 32  1  0  0  0
 45 40  1  0  0  0
 16 19  1  0  0  0
 30 31  1  0  0  0
M  END
> <minimizedAffinity>
40.93313

> <CNNscore>
0.2034226060

> <CNNaffinity>
6.9214258194

> <CNN_VS>
1.4079744816

> <CNNaffinity_variance>
0.3390341699

$$$$
[H]c1c([H])c(-c2nc(N([H])c3c([H])c([H])c(C(=O)N4C([H])([H])C([H])([H])OC([H])([H])C4([H])[H])c([H])c3[H])c(=O)n(C([H])([H])[H])c2[H])c(C([H])([H])[H])c(N([H])C(=O)c2c([H])c([H])c(C(C([H])([H])[H])(C([H])([H])[H])C([H])([H])[H])c([H])c2[H])c1[H]


 45 49  0  0  0  0  0  0  0  0999 V2000
   10.7408   42.3654  132.0540 C   0  0  0  0  0  0  0  0  0  0  0  0
   10.9415   40.9762  132.0287 C   0  0  0  0  0  0  0  0  0  0  0  0
   10.7242   40.2662  130.9008 N   0  0  0  0  0  0  0  0  0  0  0  0
   10.9549   38.8259  130.9617 C   0  0  0  0  0  0  0  0  0  0  0  0
   10.3110   40.8956  129.7890 C   0  0  0  0  0  0  0  0  0  0  0  0
   10.1037   40.2230  128.7224 O   0  0  0  0  0  0  0  0  0  0  0  0
   10.1173   42.2558  129.8157 C   0  0  0  0  0  0  0  0  0  0  0  0
   10.3277   42.9698  130.9234 N   0  0  0  0  0  0  0  0  0  0  0  0
   10.0926   45.1952  132.2168 C   0  0  0  0  0  0  0  0  0  0  0  0
   10.6181   44.4341  133.3724 C   0  0  0  0  0  0  0  0  0  0  0  0
   10.7367   45.1532  134.5820 C   0  0  0  0  0  0  0  0  0  0  0  0
   11.1221   44.4539  135.6794 C   0  0  0  0  0  0  0  0  0  0  0  0
   11.3924   43.0995  135.6349 C   0  0  0  0  0  0  0  0  0  0  0  0
   11.2637   42.4445  134.4263 C   0  0  0  0  0  0  0  0  0  0  0  0
   10.8746   43.1142  133.2812 C   0  0  0  0  0  0  0  0  0  0  0  0
   10.4804   46.5270  134.5779 N   0  0  0  0  0  0  0  0  0  0  0  0
    9.3300   47.1565  134.1068 C   0  0  0  0  0  0  0  0  0  0  0  0
    8.3256   46.6002  133.6086 O   0  0  0  0  0  0  0  0  0  0  0  0
   11.2439   47.1636  134.9979 H   0  0  0  0  0  0  0  0  0  0  0  0
    9.3233   48.6506  134.2169 C   0  0  0  0  0  0  0  0  0  0  0  0
    8.4474   49.2827  135.0625 C   0  0  0  0  0  0  0  0  0  0  0  0
    8.4708   50.6716  135.1877 C   0  0  0  0  0  0  0  0  0  0  0  0
    9.3763   51.4550  134.4650 C   0  0  0  0  0  0  0  0  0  0  0  0
   10.2357   50.7859  133.6279 C   0  0  0  0  0  0  0  0  0  0  0  0
   10.2163   49.4013  133.4993 C   0  0  0  0  0  0  0  0  0  0  0  0
    9.3883   52.9286  134.6070 C   0  0  0  0  0  0  0  0  0  0  0  0
    8.4062   53.4026  135.6523 C   0  0  0  0  0  0  0  0  0  0  0  0
   10.7741   53.4274  134.9618 C   0  0  0  0  0  0  0  0  0  0  0  0
    9.0526   53.5247  133.2502 C   0  0  0  0  0  0  0  0  0  0  0  0
    9.6175   42.9359  128.6339 N   0  0  0  0  0  0  0  0  0  0  0  0
    9.5442   42.3815  127.7751 H   0  0  0  0  0  0  0  0  0  0  0  0
    9.2599   44.3102  128.7144 C   0  0  0  0  0  0  0  0  0  0  0  0
   10.0410   45.3373  128.2607 C   0  0  0  0  0  0  0  0  0  0  0  0
    9.7002   46.6546  128.3848 C   0  0  0  0  0  0  0  0  0  0  0  0
    8.4926   47.0498  129.0044 C   0  0  0  0  0  0  0  0  0  0  0  0
    7.7100   46.0288  129.4587 C   0  0  0  0  0  0  0  0  0  0  0  0
    8.0664   44.6706  129.3273 C   0  0  0  0  0  0  0  0  0  0  0  0
    8.1675   48.4642  129.0854 C   0  0  0  0  0  0  0  0  0  0  0  0
    9.2240   49.2677  129.1151 O   0  0  0  0  0  0  0  0  0  0  0  0
    6.9722   49.1351  129.1384 N   0  0  0  0  0  0  0  0  0  0  0  0
    7.0102   50.6076  129.1869 C   0  0  0  0  0  0  0  0  0  0  0  0
    6.2181   51.0314  130.4031 C   0  0  0  0  0  0  0  0  0  0  0  0
    4.9292   50.5620  130.3548 O   0  0  0  0  0  0  0  0  0  0  0  0
    4.6364   49.6936  129.3405 C   0  0  0  0  0  0  0  0  0  0  0  0
    5.6639   48.5708  129.1735 C   0  0  0  0  0  0  0  0  0  0  0  0
  9 10  1  0  0  0
 10 11  2  0  0  0
 11 16  1  0  0  0
 16 17  1  0  0  0
 17 18  2  0  0  0
 17 20  1  0  0  0
 20 21  2  0  0  0
 21 22  1  0  0  0
 22 23  2  0  0  0
 23 24  1  0  0  0
 24 25  2  0  0  0
 23 26  1  0  0  0
 26 27  1  0  0  0
 26 28  1  0  0  0
 26 29  1  0  0  0
 11 12  1  0  0  0
 12 13  2  0  0  0
 13 14  1  0  0  0
 14 15  2  0  0  0
 15  1  1  0  0  0
  1  2  2  0  0  0
  2  3  1  0  0  0
  3  4  1  0  0  0
  3  5  1  0  0  0
  5  6  2  0  0  0
  5  7  1  0  0  0
  7 30  1  0  0  0
 30 32  1  0  0  0
 32 33  2  0  0  0
 33 34  1  0  0  0
 34 35  2  0  0  0
 35 36  1  0  0  0
 36 37  2  0  0  0
 35 38  1  0  0  0
 38 39  2  0  0  0
 38 40  1  0  0  0
 40 41  1  0  0  0
 41 42  1  0  0  0
 42 43  1  0  0  0
 43 44  1  0  0  0
 44 45  1  0  0  0
  7  8  2  0  0  0
 15 10  1  0  0  0
  8  1  1  0  0  0
 25 20  1  0  0  0
 37 32  1  0  0  0
 45 40  1  0  0  0
 16 19  1  0  0  0
 30 31  1  0  0  0
M  END
> <minimizedAffinity>
40.24578

> <CNNscore>
0.1929102540

> <CNNaffinity>
7.4565443993

> <CNN_VS>
1.4384438992

> <CNNaffinity_variance>
0.2553084493

$$$$
[H]c1nc(N([H])c2c([H])c([H])c(N3C([H])([H])C([H])([H])C([H])(N4C(=O)C([H])([H])N(C([H])([H])[H])C([H])([H])C4([H])[H])C([H])([H])C3([H])[H])c([H])c2OC([H])([H])[H])nc(N([H])c2c([H])c([H])c([H])c([H])c2S(=O)(=O)C([H])(C([H])([H])[H])C([H])([H])[H])c1Cl


 45 49  0  0  0  0  0  0  0  0999 V2000
    6.7078   51.7517  128.1278 N   0  0  0  0  0  0  0  0  0  0  0  0
    5.9150   51.2527  127.6303 H   0  0  0  0  0  0  0  0  0  0  0  0
    7.0091   53.0312  127.6813 C   0  0  0  0  0  0  0  0  0  0  0  0
    7.9454   53.8638  128.1321 N   0  0  0  0  0  0  0  0  0  0  0  0
    8.1263   55.1033  127.6766 C   0  0  0  0  0  0  0  0  0  0  0  0
    7.3101   55.5769  126.6825 C   0  0  0  0  0  0  0  0  0  0  0  0
    7.5302   57.1965  126.0915 Cl  0  0  0  0  0  0  0  0  0  0  0  0
    6.2916   54.7411  126.1587 C   0  0  0  0  0  0  0  0  0  0  0  0
    6.2166   53.5394  126.6898 N   0  0  0  0  0  0  0  0  0  0  0  0
    5.4245   55.2825  125.1898 N   0  0  0  0  0  0  0  0  0  0  0  0
    5.2918   56.3379  125.2641 H   0  0  0  0  0  0  0  0  0  0  0  0
    4.7514   54.5868  124.1661 C   0  0  0  0  0  0  0  0  0  0  0  0
    3.4587   54.1233  124.2641 C   0  0  0  0  0  0  0  0  0  0  0  0
    2.8582   53.4368  123.2084 C   0  0  0  0  0  0  0  0  0  0  0  0
    3.5214   53.2030  122.0566 C   0  0  0  0  0  0  0  0  0  0  0  0
    4.8283   53.6668  121.9493 C   0  0  0  0  0  0  0  0  0  0  0  0
    5.4535   54.3450  122.9638 C   0  0  0  0  0  0  0  0  0  0  0  0
    7.0887   54.9065  122.8123 S   0  0  0  0  0  0  0  0  0  0  0  0
    7.5389   54.8803  121.3743 O   0  0  0  0  0  0  0  0  0  0  0  0
    7.1960   56.3384  123.2920 O   0  0  0  0  0  0  0  0  0  0  0  0
    8.2654   53.9792  123.7660 C   0  0  0  0  0  0  0  0  0  0  0  0
    8.6583   52.6788  123.1676 C   0  0  0  0  0  0  0  0  0  0  0  0
    9.4860   54.7820  124.1443 C   0  0  0  0  0  0  0  0  0  0  0  0
    7.2639   49.6552  129.1009 C   0  0  0  0  0  0  0  0  0  0  0  0
    7.7590   48.8605  130.1059 C   0  0  0  0  0  0  0  0  0  0  0  0
    8.3580   49.4534  131.2240 C   0  0  0  0  0  0  0  0  0  0  0  0
    8.4416   50.8306  131.3003 C   0  0  0  0  0  0  0  0  0  0  0  0
    7.9364   51.6345  130.2779 C   0  0  0  0  0  0  0  0  0  0  0  0
    7.3434   51.0592  129.1717 C   0  0  0  0  0  0  0  0  0  0  0  0
    8.8826   48.6231  132.2423 N   0  0  0  0  0  0  0  0  0  0  0  0
    8.1340   47.5601  132.8825 C   0  0  0  0  0  0  0  0  0  0  0  0
    8.6702   46.2811  132.2312 C   0  0  0  0  0  0  0  0  0  0  0  0
   10.1611   46.2533  132.2620 C   0  0  0  0  0  0  0  0  0  0  0  0
   10.7739   47.3497  133.1036 C   0  0  0  0  0  0  0  0  0  0  0  0
   10.2678   48.7327  132.7345 C   0  0  0  0  0  0  0  0  0  0  0  0
   10.7556   45.0104  132.6422 N   0  0  0  0  0  0  0  0  0  0  0  0
   10.1860   44.1479  133.6767 C   0  0  0  0  0  0  0  0  0  0  0  0
   10.1529   42.7249  133.2437 C   0  0  0  0  0  0  0  0  0  0  0  0
   10.8559   42.4789  132.0084 N   0  0  0  0  0  0  0  0  0  0  0  0
   11.0223   41.0675  131.7476 C   0  0  0  0  0  0  0  0  0  0  0  0
   12.1683   43.0895  131.9939 C   0  0  0  0  0  0  0  0  0  0  0  0
   11.9440   44.5567  132.0163 C   0  0  0  0  0  0  0  0  0  0  0  0
   12.7862   45.3611  131.4914 O   0  0  0  0  0  0  0  0  0  0  0  0
    5.9010   47.8861  128.1844 C   0  0  0  0  0  0  0  0  0  0  0  0
    6.6832   49.0354  127.9842 O   0  0  0  0  0  0  0  0  0  0  0  0
 44 45  1  0  0  0
 45 24  1  0  0  0
 24 25  2  0  0  0
 25 26  1  0  0  0
 26 27  2  0  0  0
 27 28  1  0  0  0
 28 29  2  0  0  0
 29  1  1  0  0  0
  1  3  1  0  0  0
  3  4  2  0  0  0
  4  5  1  0  0  0
  5  6  2  0  0  0
  6  7  1  0  0  0
  6  8  1  0  0  0
  8 10  1  0  0  0
 10 12  1  0  0  0
 12 13  2  0  0  0
 13 14  1  0  0  0
 14 15  2  0  0  0
 15 16  1  0  0  0
 16 17  2  0  0  0
 17 18  1  0  0  0
 18 19  2  0  0  0
 18 20  2  0  0  0
 18 21  1  0  0  0
 21 22  1  0  0  0
 21 23  1  0  0  0
  8  9  2  0  0  0
 26 30  1  0  0  0
 30 31  1  0  0  0
 31 32  1  0  0  0
 32 33  1  0  0  0
 33 34  1  0  0  0
 34 35  1  0  0  0
 33 36  1  0  0  0
 36 37  1  0  0  0
 37 38  1  0  0  0
 38 39  1  0  0  0
 39 40  1  0  0  0
 39 41  1  0  0  0
 41 42  1  0  0  0
 42 43  2  0  0  0
 29 24  1  0  0  0
  9  3  1  0  0  0
 35 30  1  0  0  0
 42 36  1  0  0  0
 17 12  1  0  0  0
  1  2  1  0  0  0
 10 11  1  0  0  0
M  END
> <minimizedAffinity>
2.62183

> <CNNscore>
0.3918203712

> <CNNaffinity>
7.6352944374

> <CNN_VS>
2.9916639328

> <CNNaffinity_variance>
0.3391304612

$$$$
[H]c1nc(N([H])c2c([H])c([H])c(N3C([H])([H])C([H])([H])C([H])(N4C(=O)C([H])([H])N(C([H])([H])[H])C([H])([H])C4([H])[H])C([H])([H])C3([H])[H])c([H])c2OC([H])([H])[H])nc(N([H])c2c([H])c([H])c([H])c([H])c2S(=O)(=O)C([H])(C([H])([H])[H])C([H])([H])[H])c1Cl


 45 49  0  0  0  0  0  0  0  0999 V2000
    8.0742   48.2237  130.3584 N   0  0  0  0  0  0  0  0  0  0  0  0
    7.5207   47.8549  131.1847 H   0  0  0  0  0  0  0  0  0  0  0  0
    9.0571   47.3856  129.8498 C   0  0  0  0  0  0  0  0  0  0  0  0
    9.7108   47.4861  128.6940 N   0  0  0  0  0  0  0  0  0  0  0  0
   10.6043   46.5974  128.2602 C   0  0  0  0  0  0  0  0  0  0  0  0
   10.8862   45.5003  129.0319 C   0  0  0  0  0  0  0  0  0  0  0  0
   12.0403   44.3294  128.4683 Cl  0  0  0  0  0  0  0  0  0  0  0  0
   10.2238   45.3325  130.2743 C   0  0  0  0  0  0  0  0  0  0  0  0
    9.3665   46.2793  130.5911 N   0  0  0  0  0  0  0  0  0  0  0  0
   10.4822   44.1587  131.0087 N   0  0  0  0  0  0  0  0  0  0  0  0
   11.5090   43.8717  131.0253 H   0  0  0  0  0  0  0  0  0  0  0  0
    9.5474   43.3666  131.7042 C   0  0  0  0  0  0  0  0  0  0  0  0
    8.5395   42.6481  131.1014 C   0  0  0  0  0  0  0  0  0  0  0  0
    7.6461   41.8882  131.8571 C   0  0  0  0  0  0  0  0  0  0  0  0
    7.7377   41.8309  133.2022 C   0  0  0  0  0  0  0  0  0  0  0  0
    8.7523   42.5547  133.8196 C   0  0  0  0  0  0  0  0  0  0  0  0
    9.6495   43.3131  133.1126 C   0  0  0  0  0  0  0  0  0  0  0  0
   10.9022   44.2166  133.9041 S   0  0  0  0  0  0  0  0  0  0  0  0
   11.3383   43.5368  135.1765 O   0  0  0  0  0  0  0  0  0  0  0  0
   12.1184   44.3187  133.0083 O   0  0  0  0  0  0  0  0  0  0  0  0
   10.4482   45.8852  134.3088 C   0  0  0  0  0  0  0  0  0  0  0  0
   11.1262   46.9248  133.4946 C   0  0  0  0  0  0  0  0  0  0  0  0
    8.9555   46.1070  134.3204 C   0  0  0  0  0  0  0  0  0  0  0  0
    7.0753   49.5330  128.6438 C   0  0  0  0  0  0  0  0  0  0  0  0
    6.7766   50.7209  128.0224 C   0  0  0  0  0  0  0  0  0  0  0  0
    7.1349   51.9292  128.6324 C   0  0  0  0  0  0  0  0  0  0  0  0
    7.7852   51.9087  129.8515 C   0  0  0  0  0  0  0  0  0  0  0  0
    8.0880   50.6998  130.4791 C   0  0  0  0  0  0  0  0  0  0  0  0
    7.7394   49.5032  129.8852 C   0  0  0  0  0  0  0  0  0  0  0  0
    6.8028   53.1461  127.9918 N   0  0  0  0  0  0  0  0  0  0  0  0
    7.6903   54.2897  127.9219 C   0  0  0  0  0  0  0  0  0  0  0  0
    8.2425   54.2471  126.4934 C   0  0  0  0  0  0  0  0  0  0  0  0
    7.1384   54.1103  125.5001 C   0  0  0  0  0  0  0  0  0  0  0  0
    5.7584   54.2686  126.0972 C   0  0  0  0  0  0  0  0  0  0  0  0
    5.5231   53.3633  127.2932 C   0  0  0  0  0  0  0  0  0  0  0  0
    7.2273   54.9499  124.3468 N   0  0  0  0  0  0  0  0  0  0  0  0
    7.6042   56.3606  124.4259 C   0  0  0  0  0  0  0  0  0  0  0  0
    8.6096   56.7160  123.3883 C   0  0  0  0  0  0  0  0  0  0  0  0
    8.8412   55.6689  122.4236 N   0  0  0  0  0  0  0  0  0  0  0  0
    9.6208   56.1281  121.2972 C   0  0  0  0  0  0  0  0  0  0  0  0
    7.6066   55.1138  121.9107 C   0  0  0  0  0  0  0  0  0  0  0  0
    6.9490   54.4353  123.0555 C   0  0  0  0  0  0  0  0  0  0  0  0
    6.1747   53.4356  122.8739 O   0  0  0  0  0  0  0  0  0  0  0  0
    5.6483   47.5869  128.5873 C   0  0  0  0  0  0  0  0  0  0  0  0
    6.6909   48.3372  128.0190 O   0  0  0  0  0  0  0  0  0  0  0  0
 44 45  1  0  0  0
 45 24  1  0  0  0
 24 25  2  0  0  0
 25 26  1  0  0  0
 26 27  2  0  0  0
 27 28  1  0  0  0
 28 29  2  0  0  0
 29  1  1  0  0  0
  1  3  1  0  0  0
  3  4  2  0  0  0
  4  5  1  0  0  0
  5  6  2  0  0  0
  6  7  1  0  0  0
  6  8  1  0  0  0
  8 10  1  0  0  0
 10 12  1  0  0  0
 12 13  2  0  0  0
 13 14  1  0  0  0
 14 15  2  0  0  0
 15 16  1  0  0  0
 16 17  2  0  0  0
 17 18  1  0  0  0
 18 19  2  0  0  0
 18 20  2  0  0  0
 18 21  1  0  0  0
 21 22  1  0  0  0
 21 23  1  0  0  0
  8  9  2  0  0  0
 26 30  1  0  0  0
 30 31  1  0  0  0
 31 32  1  0  0  0
 32 33  1  0  0  0
 33 34  1  0  0  0
 34 35  1  0  0  0
 33 36  1  0  0  0
 36 37  1  0  0  0
 37 38  1  0  0  0
 38 39  1  0  0  0
 39 40  1  0  0  0
 39 41  1  0  0  0
 41 42  1  0  0  0
 42 43  2  0  0  0
 29 24  1  0  0  0
  9  3  1  0  0  0
 35 30  1  0  0  0
 42 36  1  0  0  0
 17 12  1  0  0  0
  1  2  1  0  0  0
 10 11  1  0  0  0
M  END
> <minimizedAffinity>
8.37292

> <CNNscore>
0.3787292540

> <CNNaffinity>
7.8950142860

> <CNN_VS>
2.9900729656

> <CNNaffinity_variance>
0.2565643489

$$$$
[H]c1nc(N([H])c2c([H])c([H])c(N3C([H])([H])C([H])([H])C([H])(N4C(=O)C([H])([H])N(C([H])([H])[H])C([H])([H])C4([H])[H])C([H])([H])C3([H])[H])c([H])c2OC([H])([H])[H])nc(N([H])c2c([H])c([H])c([H])c([H])c2S(=O)(=O)C([H])(C([H])([H])[H])C([H])([H])[H])c1Cl


 45 49  0  0  0  0  0  0  0  0999 V2000
    6.5058   52.4638  128.5727 N   0  0  0  0  0  0  0  0  0  0  0  0
    5.6835   52.8021  129.1511 H   0  0  0  0  0  0  0  0  0  0  0  0
    7.1301   53.4114  127.7730 C   0  0  0  0  0  0  0  0  0  0  0  0
    7.5692   54.6208  128.1159 N   0  0  0  0  0  0  0  0  0  0  0  0
    8.1089   55.4904  127.2621 C   0  0  0  0  0  0  0  0  0  0  0  0
    8.2305   55.1444  125.9414 C   0  0  0  0  0  0  0  0  0  0  0  0
    8.9210   56.2770  124.8185 Cl  0  0  0  0  0  0  0  0  0  0  0  0
    7.7811   53.8707  125.5098 C   0  0  0  0  0  0  0  0  0  0  0  0
    7.2698   53.1030  126.4484 N   0  0  0  0  0  0  0  0  0  0  0  0
    7.8537   53.5744  124.1348 N   0  0  0  0  0  0  0  0  0  0  0  0
    7.6987   52.5455  123.9015 H   0  0  0  0  0  0  0  0  0  0  0  0
    8.0926   54.4782  123.0807 C   0  0  0  0  0  0  0  0  0  0  0  0
    9.3289   54.9995  122.7718 C   0  0  0  0  0  0  0  0  0  0  0  0
    9.4885   55.8951  121.7140 C   0  0  0  0  0  0  0  0  0  0  0  0
    8.4394   56.2817  120.9583 C   0  0  0  0  0  0  0  0  0  0  0  0
    7.1865   55.7608  121.2641 C   0  0  0  0  0  0  0  0  0  0  0  0
    6.9885   54.8788  122.2951 C   0  0  0  0  0  0  0  0  0  0  0  0
    5.4144   54.2486  122.6656 S   0  0  0  0  0  0  0  0  0  0  0  0
    4.4201   54.6108  121.5926 O   0  0  0  0  0  0  0  0  0  0  0  0
    5.4619   52.7374  122.7442 O   0  0  0  0  0  0  0  0  0  0  0  0
    4.7593   54.8014  124.2210 C   0  0  0  0  0  0  0  0  0  0  0  0
    5.0842   56.2088  124.5632 C   0  0  0  0  0  0  0  0  0  0  0  0
    3.2789   54.5462  124.3649 C   0  0  0  0  0  0  0  0  0  0  0  0
    6.6041   50.5300  129.9521 C   0  0  0  0  0  0  0  0  0  0  0  0
    6.9879   49.2420  130.2354 C   0  0  0  0  0  0  0  0  0  0  0  0
    7.6423   48.4847  129.2563 C   0  0  0  0  0  0  0  0  0  0  0  0
    7.8935   49.0452  128.0184 C   0  0  0  0  0  0  0  0  0  0  0  0
    7.5031   50.3544  127.7348 C   0  0  0  0  0  0  0  0  0  0  0  0
    6.8578   51.1093  128.6940 C   0  0  0  0  0  0  0  0  0  0  0  0
    8.0137   47.1524  129.5539 N   0  0  0  0  0  0  0  0  0  0  0  0
    9.3536   46.6294  129.3768 C   0  0  0  0  0  0  0  0  0  0  0  0
    9.9324   46.5972  130.7950 C   0  0  0  0  0  0  0  0  0  0  0  0
    8.9957   45.9185  131.7366 C   0  0  0  0  0  0  0  0  0  0  0  0
    7.8304   45.2397  131.0533 C   0  0  0  0  0  0  0  0  0  0  0  0
    7.0755   46.1625  130.1132 C   0  0  0  0  0  0  0  0  0  0  0  0
    9.5879   44.9872  132.6448 N   0  0  0  0  0  0  0  0  0  0  0  0
    9.9953   43.6422  132.2406 C   0  0  0  0  0  0  0  0  0  0  0  0
   11.3497   43.3043  132.7555 C   0  0  0  0  0  0  0  0  0  0  0  0
   11.8735   44.2730  133.6871 N   0  0  0  0  0  0  0  0  0  0  0  0
   13.0628   43.7983  134.3561 C   0  0  0  0  0  0  0  0  0  0  0  0
   10.9078   44.6334  134.7035 C   0  0  0  0  0  0  0  0  0  0  0  0
    9.8085   45.3405  133.9999 C   0  0  0  0  0  0  0  0  0  0  0  0
    9.1045   46.2243  134.5959 O   0  0  0  0  0  0  0  0  0  0  0  0
    4.5779   50.9898  131.1809 C   0  0  0  0  0  0  0  0  0  0  0  0
    5.9356   51.2615  130.9453 O   0  0  0  0  0  0  0  0  0  0  0  0
 44 45  1  0  0  0
 45 24  1  0  0  0
 24 25  2  0  0  0
 25 26  1  0  0  0
 26 27  2  0  0  0
 27 28  1  0  0  0
 28 29  2  0  0  0
 29  1  1  0  0  0
  1  3  1  0  0  0
  3  4  2  0  0  0
  4  5  1  0  0  0
  5  6  2  0  0  0
  6  7  1  0  0  0
  6  8  1  0  0  0
  8 10  1  0  0  0
 10 12  1  0  0  0
 12 13  2  0  0  0
 13 14  1  0  0  0
 14 15  2  0  0  0
 15 16  1  0  0  0
 16 17  2  0  0  0
 17 18  1  0  0  0
 18 19  2  0  0  0
 18 20  2  0  0  0
 18 21  1  0  0  0
 21 22  1  0  0  0
 21 23  1  0  0  0
  8  9  2  0  0  0
 26 30  1  0  0  0
 30 31  1  0  0  0
 31 32  1  0  0  0
 32 33  1  0  0  0
 33 34  1  0  0  0
 34 35  1  0  0  0
 33 36  1  0  0  0
 36 37  1  0  0  0
 37 38  1  0  0  0
 38 39  1  0  0  0
 39 40  1  0  0  0
 39 41  1  0  0  0
 41 42  1  0  0  0
 42 43  2  0  0  0
 29 24  1  0  0  0
  9  3  1  0  0  0
 35 30  1  0  0  0
 42 36  1  0  0  0
 17 12  1  0  0  0
  1  2  1  0  0  0
 10 11  1  0  0  0
M  END
> <minimizedAffinity>
5.84742

> <CNNscore>
0.3495617807

> <CNNaffinity>
7.6005334854

> <CNN_VS>
2.6568560600

> <CNNaffinity_variance>
0.4864857793

$$$$
[H]c1nc(N([H])c2c([H])c([H])c(N3C([H])([H])C([H])([H])C([H])(N4C(=O)C([H])([H])N(C([H])([H])[H])C([H])([H])C4([H])[H])C([H])([H])C3([H])[H])c([H])c2OC([H])([H])[H])nc(N([H])c2c([H])c([H])c([H])c([H])c2S(=O)(=O)C([H])(C([H])([H])[H])C([H])([H])[H])c1Cl


 45 49  0  0  0  0  0  0  0  0999 V2000
    6.9558   52.5433  128.7500 N   0  0  0  0  0  0  0  0  0  0  0  0
    6.5047   53.0137  129.5869 H   0  0  0  0  0  0  0  0  0  0  0  0
    7.3265   53.3730  127.7006 C   0  0  0  0  0  0  0  0  0  0  0  0
    8.5384   53.8390  127.4050 N   0  0  0  0  0  0  0  0  0  0  0  0
    8.7922   54.6814  126.4039 C   0  0  0  0  0  0  0  0  0  0  0  0
    7.7586   55.1127  125.6135 C   0  0  0  0  0  0  0  0  0  0  0  0
    8.0782   56.2215  124.3139 Cl  0  0  0  0  0  0  0  0  0  0  0  0
    6.4424   54.6551  125.8753 C   0  0  0  0  0  0  0  0  0  0  0  0
    6.3230   53.8248  126.8893 N   0  0  0  0  0  0  0  0  0  0  0  0
    5.3935   55.1732  125.0910 N   0  0  0  0  0  0  0  0  0  0  0  0
    5.1031   56.1656  125.3516 H   0  0  0  0  0  0  0  0  0  0  0  0
    4.7265   54.5302  124.0296 C   0  0  0  0  0  0  0  0  0  0  0  0
    5.2658   54.3396  122.7772 C   0  0  0  0  0  0  0  0  0  0  0  0
    4.5423   53.6969  121.7722 C   0  0  0  0  0  0  0  0  0  0  0  0
    3.2913   53.2407  121.9912 C   0  0  0  0  0  0  0  0  0  0  0  0
    2.7383   53.4299  123.2533 C   0  0  0  0  0  0  0  0  0  0  0  0
    3.4165   54.0565  124.2669 C   0  0  0  0  0  0  0  0  0  0  0  0
    2.7035   54.2910  125.8317 S   0  0  0  0  0  0  0  0  0  0  0  0
    3.7075   54.0392  126.9271 O   0  0  0  0  0  0  0  0  0  0  0  0
    2.2249   55.7197  125.9790 O   0  0  0  0  0  0  0  0  0  0  0  0
    1.2891   53.2639  126.1458 C   0  0  0  0  0  0  0  0  0  0  0  0
    1.5990   51.8234  126.3253 C   0  0  0  0  0  0  0  0  0  0  0  0
    0.4296   53.7692  127.2788 C   0  0  0  0  0  0  0  0  0  0  0  0
    7.8044   50.6755  129.9511 C   0  0  0  0  0  0  0  0  0  0  0  0
    8.1195   49.3460  130.0914 C   0  0  0  0  0  0  0  0  0  0  0  0
    7.7561   48.4400  129.0877 C   0  0  0  0  0  0  0  0  0  0  0  0
    7.0860   48.8974  127.9691 C   0  0  0  0  0  0  0  0  0  0  0  0
    6.7688   50.2490  127.8297 C   0  0  0  0  0  0  0  0  0  0  0  0
    7.1234   51.1501  128.8138 C   0  0  0  0  0  0  0  0  0  0  0  0
    8.0682   47.0701  129.2541 N   0  0  0  0  0  0  0  0  0  0  0  0
    9.3508   46.4875  128.9142 C   0  0  0  0  0  0  0  0  0  0  0  0
   10.0524   46.3151  130.2653 C   0  0  0  0  0  0  0  0  0  0  0  0
    9.1639   45.6206  131.2413 C   0  0  0  0  0  0  0  0  0  0  0  0
    7.9009   45.0623  130.6257 C   0  0  0  0  0  0  0  0  0  0  0  0
    7.1238   46.0950  129.8288 C   0  0  0  0  0  0  0  0  0  0  0  0
    9.7759   44.5912  132.0214 N   0  0  0  0  0  0  0  0  0  0  0  0
   10.5957   43.5351  131.4289 C   0  0  0  0  0  0  0  0  0  0  0  0
   11.8531   43.3249  132.1962 C   0  0  0  0  0  0  0  0  0  0  0  0
   11.8991   44.0498  133.4424 N   0  0  0  0  0  0  0  0  0  0  0  0
   13.0045   43.6337  134.2745 C   0  0  0  0  0  0  0  0  0  0  0  0
   10.6828   43.8945  134.2118 C   0  0  0  0  0  0  0  0  0  0  0  0
    9.6088   44.5553  133.4287 C   0  0  0  0  0  0  0  0  0  0  0  0
    8.5900   45.0659  134.0061 O   0  0  0  0  0  0  0  0  0  0  0  0
    9.0973   51.1301  131.9382 C   0  0  0  0  0  0  0  0  0  0  0  0
    8.1656   51.5595  130.9789 O   0  0  0  0  0  0  0  0  0  0  0  0
 44 45  1  0  0  0
 45 24  1  0  0  0
 24 25  2  0  0  0
 25 26  1  0  0  0
 26 27  2  0  0  0
 27 28  1  0  0  0
 28 29  2  0  0  0
 29  1  1  0  0  0
  1  3  1  0  0  0
  3  4  2  0  0  0
  4  5  1  0  0  0
  5  6  2  0  0  0
  6  7  1  0  0  0
  6  8  1  0  0  0
  8 10  1  0  0  0
 10 12  1  0  0  0
 12 13  2  0  0  0
 13 14  1  0  0  0
 14 15  2  0  0  0
 15 16  1  0  0  0
 16 17  2  0  0  0
 17 18  1  0  0  0
 18 19  2  0  0  0
 18 20  2  0  0  0
 18 21  1  0  0  0
 21 22  1  0  0  0
 21 23  1  0  0  0
  8  9  2  0  0  0
 26 30  1  0  0  0
 30 31  1  0  0  0
 31 32  1  0  0  0
 32 33  1  0  0  0
 33 34  1  0  0  0
 34 35  1  0  0  0
 33 36  1  0  0  0
 36 37  1  0  0  0
 37 38  1  0  0  0
 38 39  1  0  0  0
 39 40  1  0  0  0
 39 41  1  0  0  0
 41 42  1  0  0  0
 42 43  2  0  0  0
 29 24  1  0  0  0
  9  3  1  0  0  0
 35 30  1  0  0  0
 42 36  1  0  0  0
 17 12  1  0  0  0
  1  2  1  0  0  0
 10 11  1  0  0  0
M  END
> <minimizedAffinity>
3.44922

> <CNNscore>
0.3355027437

> <CNNaffinity>
7.6020135880

> <CNN_VS>
2.5504963398

> <CNNaffinity_variance>
0.4082405567

$$$$
[H]c1nc(N([H])c2c([H])c([H])c(N3C([H])([H])C([H])([H])C([H])(N4C(=O)C([H])([H])N(C([H])([H])[H])C([H])([H])C4([H])[H])C([H])([H])C3([H])[H])c([H])c2OC([H])([H])[H])nc(N([H])c2c([H])c([H])c([H])c([H])c2S(=O)(=O)C([H])(C([H])([H])[H])C([H])([H])[H])c1Cl


 45 49  0  0  0  0  0  0  0  0999 V2000
    6.5800   51.9148  128.3043 N   0  0  0  0  0  0  0  0  0  0  0  0
    5.6061   51.6142  128.0107 H   0  0  0  0  0  0  0  0  0  0  0  0
    7.0702   53.0755  127.7215 C   0  0  0  0  0  0  0  0  0  0  0  0
    8.1466   53.7805  128.0643 N   0  0  0  0  0  0  0  0  0  0  0  0
    8.5113   54.9212  127.4793 C   0  0  0  0  0  0  0  0  0  0  0  0
    7.7472   55.4240  126.4585 C   0  0  0  0  0  0  0  0  0  0  0  0
    8.2077   56.9176  125.6985 Cl  0  0  0  0  0  0  0  0  0  0  0  0
    6.5865   54.7225  126.0451 C   0  0  0  0  0  0  0  0  0  0  0  0
    6.3352   53.6086  126.6992 N   0  0  0  0  0  0  0  0  0  0  0  0
    5.7842   55.3028  125.0434 N   0  0  0  0  0  0  0  0  0  0  0  0
    5.6503   56.3555  125.1471 H   0  0  0  0  0  0  0  0  0  0  0  0
    5.1754   54.6477  123.9547 C   0  0  0  0  0  0  0  0  0  0  0  0
    5.8408   54.2571  122.8144 C   0  0  0  0  0  0  0  0  0  0  0  0
    5.1692   53.6158  121.7731 C   0  0  0  0  0  0  0  0  0  0  0  0
    3.8468   53.3567  121.8461 C   0  0  0  0  0  0  0  0  0  0  0  0
    3.1664   53.7489  122.9940 C   0  0  0  0  0  0  0  0  0  0  0  0
    3.7901   54.3813  124.0386 C   0  0  0  0  0  0  0  0  0  0  0  0
    2.9198   54.8711  125.4580 S   0  0  0  0  0  0  0  0  0  0  0  0
    1.5547   54.2340  125.5025 O   0  0  0  0  0  0  0  0  0  0  0  0
    3.6619   54.4335  126.7029 O   0  0  0  0  0  0  0  0  0  0  0  0
    2.7036   56.6276  125.6064 C   0  0  0  0  0  0  0  0  0  0  0  0
    3.2911   57.2210  126.8336 C   0  0  0  0  0  0  0  0  0  0  0  0
    3.1518   57.3855  124.3808 C   0  0  0  0  0  0  0  0  0  0  0  0
    6.8819   49.7456  129.2290 C   0  0  0  0  0  0  0  0  0  0  0  0
    7.3818   48.8650  130.1570 C   0  0  0  0  0  0  0  0  0  0  0  0
    8.2697   49.3243  131.1373 C   0  0  0  0  0  0  0  0  0  0  0  0
    8.6297   50.6583  131.1573 C   0  0  0  0  0  0  0  0  0  0  0  0
    8.1187   51.5500  130.2136 C   0  0  0  0  0  0  0  0  0  0  0  0
    7.2421   51.1067  129.2434 C   0  0  0  0  0  0  0  0  0  0  0  0
    8.7935   48.4029  132.0744 N   0  0  0  0  0  0  0  0  0  0  0  0
    8.1859   47.1214  132.3726 C   0  0  0  0  0  0  0  0  0  0  0  0
    9.0563   46.1110  131.6182 C   0  0  0  0  0  0  0  0  0  0  0  0
   10.5017   46.3274  131.9155 C   0  0  0  0  0  0  0  0  0  0  0  0
   10.7529   47.3150  133.0324 C   0  0  0  0  0  0  0  0  0  0  0  0
   10.0413   48.6397  132.8229 C   0  0  0  0  0  0  0  0  0  0  0  0
   11.2694   45.1503  132.1763 N   0  0  0  0  0  0  0  0  0  0  0  0
   11.4244   44.5915  133.5187 C   0  0  0  0  0  0  0  0  0  0  0  0
   11.2261   43.1169  133.5224 C   0  0  0  0  0  0  0  0  0  0  0  0
   11.1249   42.5429  132.2030 N   0  0  0  0  0  0  0  0  0  0  0  0
   11.1876   41.0997  132.2302 C   0  0  0  0  0  0  0  0  0  0  0  0
   12.1693   43.0148  131.3186 C   0  0  0  0  0  0  0  0  0  0  0  0
   11.9220   44.4650  131.1207 C   0  0  0  0  0  0  0  0  0  0  0  0
   12.2814   45.0550  130.0461 O   0  0  0  0  0  0  0  0  0  0  0  0
    5.6024   47.9130  128.3172 C   0  0  0  0  0  0  0  0  0  0  0  0
    6.0067   49.2563  128.2477 O   0  0  0  0  0  0  0  0  0  0  0  0
 44 45  1  0  0  0
 45 24  1  0  0  0
 24 25  2  0  0  0
 25 26  1  0  0  0
 26 27  2  0  0  0
 27 28  1  0  0  0
 28 29  2  0  0  0
 29  1  1  0  0  0
  1  3  1  0  0  0
  3  4  2  0  0  0
  4  5  1  0  0  0
  5  6  2  0  0  0
  6  7  1  0  0  0
  6  8  1  0  0  0
  8 10  1  0  0  0
 10 12  1  0  0  0
 12 13  2  0  0  0
 13 14  1  0  0  0
 14 15  2  0  0  0
 15 16  1  0  0  0
 16 17  2  0  0  0
 17 18  1  0  0  0
 18 19  2  0  0  0
 18 20  2  0  0  0
 18 21  1  0  0  0
 21 22  1  0  0  0
 21 23  1  0  0  0
  8  9  2  0  0  0
 26 30  1  0  0  0
 30 31  1  0  0  0
 31 32  1  0  0  0
 32 33  1  0  0  0
 33 34  1  0  0  0
 34 35  1  0  0  0
 33 36  1  0  0  0
 36 37  1  0  0  0
 37 38  1  0  0  0
 38 39  1  0  0  0
 39 40  1  0  0  0
 39 41  1  0  0  0
 41 42  1  0  0  0
 42 43  2  0  0  0
 29 24  1  0  0  0
  9  3  1  0  0  0
 35 30  1  0  0  0
 42 36  1  0  0  0
 17 12  1  0  0  0
  1  2  1  0  0  0
 10 11  1  0  0  0
M  END
> <minimizedAffinity>
2.87705

> <CNNscore>
0.2900649905

> <CNNaffinity>
7.4450392723

> <CNN_VS>
2.1595451832

> <CNNaffinity_variance>
0.1758232713

$$$$
[H]c1nc(N([H])c2c([H])c([H])c(N3C([H])([H])C([H])([H])C([H])(N4C(=O)C([H])([H])N(C([H])([H])[H])C([H])([H])C4([H])[H])C([H])([H])C3([H])[H])c([H])c2OC([H])([H])[H])nc(N([H])c2c([H])c([H])c([H])c([H])c2S(=O)(=O)C([H])(C([H])([H])[H])C([H])([H])[H])c1Cl


 45 49  0  0  0  0  0  0  0  0999 V2000
    6.9199   52.1608  128.5716 N   0  0  0  0  0  0  0  0  0  0  0  0
    6.5058   52.7023  129.3843 H   0  0  0  0  0  0  0  0  0  0  0  0
    7.2835   52.9030  127.4562 C   0  0  0  0  0  0  0  0  0  0  0  0
    8.1533   52.5838  126.4998 N   0  0  0  0  0  0  0  0  0  0  0  0
    8.4834   53.3884  125.4899 C   0  0  0  0  0  0  0  0  0  0  0  0
    7.9071   54.6293  125.4068 C   0  0  0  0  0  0  0  0  0  0  0  0
    8.3412   55.6904  124.1006 Cl  0  0  0  0  0  0  0  0  0  0  0  0
    6.9728   55.0320  126.3943 C   0  0  0  0  0  0  0  0  0  0  0  0
    6.7296   54.1474  127.3377 N   0  0  0  0  0  0  0  0  0  0  0  0
    6.4540   56.3394  126.3204 N   0  0  0  0  0  0  0  0  0  0  0  0
    7.0929   57.0349  125.8253 H   0  0  0  0  0  0  0  0  0  0  0  0
    5.2136   56.7920  126.8118 C   0  0  0  0  0  0  0  0  0  0  0  0
    5.0034   57.2308  128.0997 C   0  0  0  0  0  0  0  0  0  0  0  0
    3.7434   57.6608  128.5171 C   0  0  0  0  0  0  0  0  0  0  0  0
    2.6885   57.6615  127.6755 C   0  0  0  0  0  0  0  0  0  0  0  0
    2.8916   57.2187  126.3727 C   0  0  0  0  0  0  0  0  0  0  0  0
    4.1138   56.7883  125.9244 C   0  0  0  0  0  0  0  0  0  0  0  0
    4.3428   56.2304  124.2970 S   0  0  0  0  0  0  0  0  0  0  0  0
    3.4078   56.9339  123.3471 O   0  0  0  0  0  0  0  0  0  0  0  0
    5.7555   56.5234  123.8382 O   0  0  0  0  0  0  0  0  0  0  0  0
    4.1114   54.4818  124.0902 C   0  0  0  0  0  0  0  0  0  0  0  0
    2.8447   53.9548  124.6567 C   0  0  0  0  0  0  0  0  0  0  0  0
    4.2871   54.0256  122.6624 C   0  0  0  0  0  0  0  0  0  0  0  0
    7.7682   50.3588  129.8696 C   0  0  0  0  0  0  0  0  0  0  0  0
    8.0516   49.0336  130.0937 C   0  0  0  0  0  0  0  0  0  0  0  0
    7.6184   48.0695  129.1755 C   0  0  0  0  0  0  0  0  0  0  0  0
    6.9122   48.4658  128.0558 C   0  0  0  0  0  0  0  0  0  0  0  0
    6.6274   49.8130  127.8310 C   0  0  0  0  0  0  0  0  0  0  0  0
    7.0508   50.7713  128.7303 C   0  0  0  0  0  0  0  0  0  0  0  0
    7.8988   46.7061  129.4287 N   0  0  0  0  0  0  0  0  0  0  0  0
    9.0188   45.9914  128.8499 C   0  0  0  0  0  0  0  0  0  0  0  0
   10.0412   45.9144  129.9883 C   0  0  0  0  0  0  0  0  0  0  0  0
    9.4082   45.4028  131.2381 C   0  0  0  0  0  0  0  0  0  0  0  0
    8.0034   44.8803  131.0400 C   0  0  0  0  0  0  0  0  0  0  0  0
    7.0936   45.8766  130.3434 C   0  0  0  0  0  0  0  0  0  0  0  0
   10.1545   44.4208  131.9603 N   0  0  0  0  0  0  0  0  0  0  0  0
   11.3125   43.7339  131.3897 C   0  0  0  0  0  0  0  0  0  0  0  0
   12.4485   43.6896  132.3496 C   0  0  0  0  0  0  0  0  0  0  0  0
   12.1051   44.1444  133.6747 N   0  0  0  0  0  0  0  0  0  0  0  0
   13.1436   43.8549  134.6365 C   0  0  0  0  0  0  0  0  0  0  0  0
   10.8767   43.5495  134.1569 C   0  0  0  0  0  0  0  0  0  0  0  0
    9.7933   44.0695  133.2854 C   0  0  0  0  0  0  0  0  0  0  0  0
    8.5985   44.1928  133.7203 O   0  0  0  0  0  0  0  0  0  0  0  0
    9.1135   50.8977  131.8001 C   0  0  0  0  0  0  0  0  0  0  0  0
    8.1996   51.3029  130.8134 O   0  0  0  0  0  0  0  0  0  0  0  0
 44 45  1  0  0  0
 45 24  1  0  0  0
 24 25  2  0  0  0
 25 26  1  0  0  0
 26 27  2  0  0  0
 27 28  1  0  0  0
 28 29  2  0  0  0
 29  1  1  0  0  0
  1  3  1  0  0  0
  3  4  2  0  0  0
  4  5  1  0  0  0
  5  6  2  0  0  0
  6  7  1  0  0  0
  6  8  1  0  0  0
  8 10  1  0  0  0
 10 12  1  0  0  0
 12 13  2  0  0  0
 13 14  1  0  0  0
 14 15  2  0  0  0
 15 16  1  0  0  0
 16 17  2  0  0  0
 17 18  1  0  0  0
 18 19  2  0  0  0
 18 20  2  0  0  0
 18 21  1  0  0  0
 21 22  1  0  0  0
 21 23  1  0  0  0
  8  9  2  0  0  0
 26 30  1  0  0  0
 30 31  1  0  0  0
 31 32  1  0  0  0
 32 33  1  0  0  0
 33 34  1  0  0  0
 34 35  1  0  0  0
 33 36  1  0  0  0
 36 37  1  0  0  0
 37 38  1  0  0  0
 38 39  1  0  0  0
 39 40  1  0  0  0
 39 41  1  0  0  0
 41 42  1  0  0  0
 42 43  2  0  0  0
 29 24  1  0  0  0
  9  3  1  0  0  0
 35 30  1  0  0  0
 42 36  1  0  0  0
 17 12  1  0  0  0
  1  2  1  0  0  0
 10 11  1  0  0  0
M  END
> <minimizedAffinity>
3.81827

> <CNNscore>
0.2715142965

> <CNNaffinity>
7.5515351295

> <CNN_VS>
2.0503497124

> <CNNaffinity_variance>
0.3598510623

$$$$
[H]c1nc(N([H])c2c([H])c([H])c(N3C([H])([H])C([H])([H])C([H])(N4C(=O)C([H])([H])N(C([H])([H])[H])C([H])([H])C4([H])[H])C([H])([H])C3([H])[H])c([H])c2OC([H])([H])[H])nc(N([H])c2c([H])c([H])c([H])c([H])c2S(=O)(=O)C([H])(C([H])([H])[H])C([H])([H])[H])c1Cl


 45 49  0  0  0  0  0  0  0  0999 V2000
    6.2790   52.1559  128.5321 N   0  0  0  0  0  0  0  0  0  0  0  0
    5.2735   52.3070  128.8344 H   0  0  0  0  0  0  0  0  0  0  0  0
    6.9129   53.2360  127.9332 C   0  0  0  0  0  0  0  0  0  0  0  0
    8.0147   53.8701  128.3295 N   0  0  0  0  0  0  0  0  0  0  0  0
    8.5225   54.9403  127.7186 C   0  0  0  0  0  0  0  0  0  0  0  0
    7.8899   55.4419  126.6109 C   0  0  0  0  0  0  0  0  0  0  0  0
    8.5375   56.8450  125.8156 Cl  0  0  0  0  0  0  0  0  0  0  0  0
    6.7104   54.8137  126.1370 C   0  0  0  0  0  0  0  0  0  0  0  0
    6.3120   53.7651  126.8250 N   0  0  0  0  0  0  0  0  0  0  0  0
    6.0450   55.3966  125.0409 N   0  0  0  0  0  0  0  0  0  0  0  0
    6.1850   56.4502  124.9556 H   0  0  0  0  0  0  0  0  0  0  0  0
    5.2517   54.7398  124.0795 C   0  0  0  0  0  0  0  0  0  0  0  0
    3.8819   54.6230  124.1537 C   0  0  0  0  0  0  0  0  0  0  0  0
    3.1620   53.9527  123.1641 C   0  0  0  0  0  0  0  0  0  0  0  0
    3.7812   53.3962  122.1021 C   0  0  0  0  0  0  0  0  0  0  0  0
    5.1651   53.5086  122.0196 C   0  0  0  0  0  0  0  0  0  0  0  0
    5.9081   54.1588  122.9711 C   0  0  0  0  0  0  0  0  0  0  0  0
    7.6354   54.2787  122.8536 S   0  0  0  0  0  0  0  0  0  0  0  0
    8.2918   53.9440  124.1684 O   0  0  0  0  0  0  0  0  0  0  0  0
    8.1586   53.2973  121.8263 O   0  0  0  0  0  0  0  0  0  0  0  0
    8.2190   55.8778  122.3476 C   0  0  0  0  0  0  0  0  0  0  0  0
    9.6006   56.1985  122.7854 C   0  0  0  0  0  0  0  0  0  0  0  0
    8.0577   56.1266  120.8679 C   0  0  0  0  0  0  0  0  0  0  0  0
    5.9172   49.8814  129.1216 C   0  0  0  0  0  0  0  0  0  0  0  0
    6.3377   48.6244  129.4818 C   0  0  0  0  0  0  0  0  0  0  0  0
    7.7073   48.3353  129.5092 C   0  0  0  0  0  0  0  0  0  0  0  0
    8.6169   49.3201  129.1739 C   0  0  0  0  0  0  0  0  0  0  0  0
    8.1859   50.5962  128.8096 C   0  0  0  0  0  0  0  0  0  0  0  0
    6.8374   50.8911  128.7802 C   0  0  0  0  0  0  0  0  0  0  0  0
    8.1263   47.0308  129.8619 N   0  0  0  0  0  0  0  0  0  0  0  0
    9.4988   46.5734  129.7771 C   0  0  0  0  0  0  0  0  0  0  0  0
    9.9925   46.6028  131.2272 C   0  0  0  0  0  0  0  0  0  0  0  0
    9.0361   45.8982  132.1291 C   0  0  0  0  0  0  0  0  0  0  0  0
    7.9491   45.1452  131.3960 C   0  0  0  0  0  0  0  0  0  0  0  0
    7.2068   46.0068  130.3901 C   0  0  0  0  0  0  0  0  0  0  0  0
    9.6186   45.0191  133.0939 N   0  0  0  0  0  0  0  0  0  0  0  0
    9.8921   43.6103  132.8129 C   0  0  0  0  0  0  0  0  0  0  0  0
   11.2500   43.2152  133.2755 C   0  0  0  0  0  0  0  0  0  0  0  0
   11.9113   44.2275  134.0619 N   0  0  0  0  0  0  0  0  0  0  0  0
   13.1055   43.7264  134.7024 C   0  0  0  0  0  0  0  0  0  0  0  0
   11.0508   44.7700  135.0919 C   0  0  0  0  0  0  0  0  0  0  0  0
    9.9615   45.4902  134.3862 C   0  0  0  0  0  0  0  0  0  0  0  0
    9.3713   46.4864  134.9260 O   0  0  0  0  0  0  0  0  0  0  0  0
    3.6490   49.0680  129.2653 C   0  0  0  0  0  0  0  0  0  0  0  0
    4.5387   50.1400  129.0865 O   0  0  0  0  0  0  0  0  0  0  0  0
 44 45  1  0  0  0
 45 24  1  0  0  0
 24 25  2  0  0  0
 25 26  1  0  0  0
 26 27  2  0  0  0
 27 28  1  0  0  0
 28 29  2  0  0  0
 29  1  1  0  0  0
  1  3  1  0  0  0
  3  4  2  0  0  0
  4  5  1  0  0  0
  5  6  2  0  0  0
  6  7  1  0  0  0
  6  8  1  0  0  0
  8 10  1  0  0  0
 10 12  1  0  0  0
 12 13  2  0  0  0
 13 14  1  0  0  0
 14 15  2  0  0  0
 15 16  1  0  0  0
 16 17  2  0  0  0
 17 18  1  0  0  0
 18 19  2  0  0  0
 18 20  2  0  0  0
 18 21  1  0  0  0
 21 22  1  0  0  0
 21 23  1  0  0  0
  8  9  2  0  0  0
 26 30  1  0  0  0
 30 31  1  0  0  0
 31 32  1  0  0  0
 32 33  1  0  0  0
 33 34  1  0  0  0
 34 35  1  0  0  0
 33 36  1  0  0  0
 36 37  1  0  0  0
 37 38  1  0  0  0
 38 39  1  0  0  0
 39 40  1  0  0  0
 39 41  1  0  0  0
 41 42  1  0  0  0
 42 43  2  0  0  0
 29 24  1  0  0  0
  9  3  1  0  0  0
 35 30  1  0  0  0
 42 36  1  0  0  0
 17 12  1  0  0  0
  1  2  1  0  0  0
 10 11  1  0  0  0
M  END
> <minimizedAffinity>
4.98226

> <CNNscore>
0.2193158269

> <CNNaffinity>
7.3967986107

> <CNN_VS>
1.6222350597

> <CNNaffinity_variance>
0.2292907685

$$$$
[H]c1nc(N([H])c2c([H])c([H])c(N3C([H])([H])C([H])([H])C([H])(N4C(=O)C([H])([H])N(C([H])([H])[H])C([H])([H])C4([H])[H])C([H])([H])C3([H])[H])c([H])c2OC([H])([H])[H])nc(N([H])c2c([H])c([H])c([H])c([H])c2S(=O)(=O)C([H])(C([H])([H])[H])C([H])([H])[H])c1Cl


 45 49  0  0  0  0  0  0  0  0999 V2000
    7.3728   48.8072  130.3141 N   0  0  0  0  0  0  0  0  0  0  0  0
    6.8093   48.0097  129.8999 H   0  0  0  0  0  0  0  0  0  0  0  0
    8.2336   48.4809  131.3532 C   0  0  0  0  0  0  0  0  0  0  0  0
    9.1070   49.2670  131.9796 N   0  0  0  0  0  0  0  0  0  0  0  0
    9.9378   48.8501  132.9347 C   0  0  0  0  0  0  0  0  0  0  0  0
    9.9137   47.5334  133.3150 C   0  0  0  0  0  0  0  0  0  0  0  0
   11.0025   46.9779  134.5505 Cl  0  0  0  0  0  0  0  0  0  0  0  0
    9.0074   46.6423  132.6866 C   0  0  0  0  0  0  0  0  0  0  0  0
    8.2389   47.1759  131.7611 N   0  0  0  0  0  0  0  0  0  0  0  0
    9.0582   45.2822  133.0489 N   0  0  0  0  0  0  0  0  0  0  0  0
    8.1575   44.9126  133.4838 H   0  0  0  0  0  0  0  0  0  0  0  0
   10.1430   44.3980  132.8864 C   0  0  0  0  0  0  0  0  0  0  0  0
   11.2153   44.3204  133.7465 C   0  0  0  0  0  0  0  0  0  0  0  0
   12.2576   43.4215  133.5181 C   0  0  0  0  0  0  0  0  0  0  0  0
   12.2520   42.5985  132.4486 C   0  0  0  0  0  0  0  0  0  0  0  0
   11.1730   42.6709  131.5739 C   0  0  0  0  0  0  0  0  0  0  0  0
   10.1300   43.5405  131.7633 C   0  0  0  0  0  0  0  0  0  0  0  0
    8.7980   43.6214  130.6536 S   0  0  0  0  0  0  0  0  0  0  0  0
    8.2639   42.2457  130.3480 O   0  0  0  0  0  0  0  0  0  0  0  0
    7.6631   44.4213  131.2572 O   0  0  0  0  0  0  0  0  0  0  0  0
    9.1868   44.4077  129.1094 C   0  0  0  0  0  0  0  0  0  0  0  0
   10.0030   45.6414  129.2324 C   0  0  0  0  0  0  0  0  0  0  0  0
    9.7956   43.4644  128.1008 C   0  0  0  0  0  0  0  0  0  0  0  0
    7.2235   50.1397  128.3510 C   0  0  0  0  0  0  0  0  0  0  0  0
    7.1456   51.3371  127.6826 C   0  0  0  0  0  0  0  0  0  0  0  0
    7.0177   52.5270  128.4092 C   0  0  0  0  0  0  0  0  0  0  0  0
    6.9725   52.4793  129.7895 C   0  0  0  0  0  0  0  0  0  0  0  0
    7.0531   51.2610  130.4649 C   0  0  0  0  0  0  0  0  0  0  0  0
    7.1801   50.0823  129.7572 C   0  0  0  0  0  0  0  0  0  0  0  0
    6.9176   53.7517  127.7080 N   0  0  0  0  0  0  0  0  0  0  0  0
    8.0469   54.6150  127.4261 C   0  0  0  0  0  0  0  0  0  0  0  0
    8.3598   54.3505  125.9498 C   0  0  0  0  0  0  0  0  0  0  0  0
    7.1268   54.4561  125.1174 C   0  0  0  0  0  0  0  0  0  0  0  0
    5.9324   55.0052  125.8644 C   0  0  0  0  0  0  0  0  0  0  0  0
    5.6486   54.2606  127.1568 C   0  0  0  0  0  0  0  0  0  0  0  0
    7.2600   55.1784  123.8913 N   0  0  0  0  0  0  0  0  0  0  0  0
    7.5591   56.6092  123.8477 C   0  0  0  0  0  0  0  0  0  0  0  0
    8.6206   56.9148  122.8509 C   0  0  0  0  0  0  0  0  0  0  0  0
    8.9758   55.7904  122.0200 N   0  0  0  0  0  0  0  0  0  0  0  0
    9.8139   56.1773  120.9085 C   0  0  0  0  0  0  0  0  0  0  0  0
    7.8124   55.1164  121.4837 C   0  0  0  0  0  0  0  0  0  0  0  0
    7.1054   54.5207  122.6451 C   0  0  0  0  0  0  0  0  0  0  0  0
    6.3977   53.4650  122.5161 O   0  0  0  0  0  0  0  0  0  0  0  0
    6.5875   47.8388  127.9926 C   0  0  0  0  0  0  0  0  0  0  0  0
    7.3349   48.9608  127.5985 O   0  0  0  0  0  0  0  0  0  0  0  0
 44 45  1  0  0  0
 45 24  1  0  0  0
 24 25  2  0  0  0
 25 26  1  0  0  0
 26 27  2  0  0  0
 27 28  1  0  0  0
 28 29  2  0  0  0
 29  1  1  0  0  0
  1  3  1  0  0  0
  3  4  2  0  0  0
  4  5  1  0  0  0
  5  6  2  0  0  0
  6  7  1  0  0  0
  6  8  1  0  0  0
  8 10  1  0  0  0
 10 12  1  0  0  0
 12 13  2  0  0  0
 13 14  1  0  0  0
 14 15  2  0  0  0
 15 16  1  0  0  0
 16 17  2  0  0  0
 17 18  1  0  0  0
 18 19  2  0  0  0
 18 20  2  0  0  0
 18 21  1  0  0  0
 21 22  1  0  0  0
 21 23  1  0  0  0
  8  9  2  0  0  0
 26 30  1  0  0  0
 30 31  1  0  0  0
 31 32  1  0  0  0
 32 33  1  0  0  0
 33 34  1  0  0  0
 34 35  1  0  0  0
 33 36  1  0  0  0
 36 37  1  0  0  0
 37 38  1  0  0  0
 38 39  1  0  0  0
 39 40  1  0  0  0
 39 41  1  0  0  0
 41 42  1  0  0  0
 42 43  2  0  0  0
 29 24  1  0  0  0
  9  3  1  0  0  0
 35 30  1  0  0  0
 42 36  1  0  0  0
 17 12  1  0  0  0
  1  2  1  0  0  0
 10 11  1  0  0  0
M  END
> <minimizedAffinity>
4.76459

> <CNNscore>
0.2177889049

> <CNNaffinity>
7.7804336548

> <CNN_VS>
1.6944921017

> <CNNaffinity_variance>
0.1691656262

$$$$
[H]c1nc(N([H])c2c([H])c([H])c(N3C([H])([H])C([H])([H])C([H])(N4C(=O)C([H])([H])N(C([H])([H])[H])C([H])([H])C4([H])[H])C([H])([H])C3([H])[H])c([H])c2OC([H])([H])[H])nc(N([H])c2c([H])c([H])c([H])c([H])c2S(=O)(=O)C([H])(C([H])([H])[H])C([H])([H])[H])c1Cl


 45 49  0  0  0  0  0  0  0  0999 V2000
    8.0284   48.2570  130.2768 N   0  0  0  0  0  0  0  0  0  0  0  0
    8.0174   47.4718  129.5637 H   0  0  0  0  0  0  0  0  0  0  0  0
    8.3562   47.9044  131.5789 C   0  0  0  0  0  0  0  0  0  0  0  0
    8.6169   48.7052  132.6104 N   0  0  0  0  0  0  0  0  0  0  0  0
    8.9802   48.2749  133.8183 C   0  0  0  0  0  0  0  0  0  0  0  0
    9.1024   46.9278  134.0403 C   0  0  0  0  0  0  0  0  0  0  0  0
    9.5885   46.3581  135.6086 Cl  0  0  0  0  0  0  0  0  0  0  0  0
    8.8402   46.0201  132.9832 C   0  0  0  0  0  0  0  0  0  0  0  0
    8.4877   46.5688  131.8402 N   0  0  0  0  0  0  0  0  0  0  0  0
    9.0450   44.6475  133.2235 N   0  0  0  0  0  0  0  0  0  0  0  0
    9.1065   44.3898  134.2564 H   0  0  0  0  0  0  0  0  0  0  0  0
    9.1610   43.6231  132.2632 C   0  0  0  0  0  0  0  0  0  0  0  0
    8.1065   43.1208  131.5343 C   0  0  0  0  0  0  0  0  0  0  0  0
    8.2971   42.1005  130.6020 C   0  0  0  0  0  0  0  0  0  0  0  0
    9.5187   41.5708  130.3823 C   0  0  0  0  0  0  0  0  0  0  0  0
   10.5896   42.0715  131.1150 C   0  0  0  0  0  0  0  0  0  0  0  0
   10.4434   43.0730  132.0400 C   0  0  0  0  0  0  0  0  0  0  0  0
   11.7920   43.6764  132.9507 S   0  0  0  0  0  0  0  0  0  0  0  0
   11.4316   43.8445  134.4044 O   0  0  0  0  0  0  0  0  0  0  0  0
   12.9469   42.6998  132.8831 O   0  0  0  0  0  0  0  0  0  0  0  0
   12.4259   45.2289  132.3661 C   0  0  0  0  0  0  0  0  0  0  0  0
   11.8591   45.6792  131.0702 C   0  0  0  0  0  0  0  0  0  0  0  0
   12.3415   46.3290  133.3957 C   0  0  0  0  0  0  0  0  0  0  0  0
    7.1484   49.6028  128.5257 C   0  0  0  0  0  0  0  0  0  0  0  0
    6.8848   50.8041  127.9144 C   0  0  0  0  0  0  0  0  0  0  0  0
    7.1826   51.9988  128.5811 C   0  0  0  0  0  0  0  0  0  0  0  0
    7.7386   51.9515  129.8453 C   0  0  0  0  0  0  0  0  0  0  0  0
    8.0060   50.7290  130.4625 C   0  0  0  0  0  0  0  0  0  0  0  0
    7.7165   49.5456  129.8129 C   0  0  0  0  0  0  0  0  0  0  0  0
    6.8870   53.2294  127.9489 N   0  0  0  0  0  0  0  0  0  0  0  0
    7.8259   54.3283  127.8428 C   0  0  0  0  0  0  0  0  0  0  0  0
    8.3227   54.2565  126.3953 C   0  0  0  0  0  0  0  0  0  0  0  0
    7.1777   54.1721  125.4434 C   0  0  0  0  0  0  0  0  0  0  0  0
    5.8298   54.3984  126.0898 C   0  0  0  0  0  0  0  0  0  0  0  0
    5.5946   53.5077  127.2967 C   0  0  0  0  0  0  0  0  0  0  0  0
    7.2651   55.0045  124.2848 N   0  0  0  0  0  0  0  0  0  0  0  0
    7.6644   56.4096  124.3519 C   0  0  0  0  0  0  0  0  0  0  0  0
    8.6622   56.7444  123.3002 C   0  0  0  0  0  0  0  0  0  0  0  0
    8.8658   55.6891  122.3382 N   0  0  0  0  0  0  0  0  0  0  0  0
    9.6383   56.1307  121.1999 C   0  0  0  0  0  0  0  0  0  0  0  0
    7.6166   55.1504  121.8433 C   0  0  0  0  0  0  0  0  0  0  0  0
    6.9630   54.4878  122.9997 C   0  0  0  0  0  0  0  0  0  0  0  0
    6.1714   53.4991  122.8327 O   0  0  0  0  0  0  0  0  0  0  0  0
    5.8271   47.5882  128.3746 C   0  0  0  0  0  0  0  0  0  0  0  0
    6.8255   48.4207  127.8425 O   0  0  0  0  0  0  0  0  0  0  0  0
 44 45  1  0  0  0
 45 24  1  0  0  0
 24 25  2  0  0  0
 25 26  1  0  0  0
 26 27  2  0  0  0
 27 28  1  0  0  0
 28 29  2  0  0  0
 29  1  1  0  0  0
  1  3  1  0  0  0
  3  4  2  0  0  0
  4  5  1  0  0  0
  5  6  2  0  0  0
  6  7  1  0  0  0
  6  8  1  0  0  0
  8 10  1  0  0  0
 10 12  1  0  0  0
 12 13  2  0  0  0
 13 14  1  0  0  0
 14 15  2  0  0  0
 15 16  1  0  0  0
 16 17  2  0  0  0
 17 18  1  0  0  0
 18 19  2  0  0  0
 18 20  2  0  0  0
 18 21  1  0  0  0
 21 22  1  0  0  0
 21 23  1  0  0  0
  8  9  2  0  0  0
 26 30  1  0  0  0
 30 31  1  0  0  0
 31 32  1  0  0  0
 32 33  1  0  0  0
 33 34  1  0  0  0
 34 35  1  0  0  0
 33 36  1  0  0  0
 36 37  1  0  0  0
 37 38  1  0  0  0
 38 39  1  0  0  0
 39 40  1  0  0  0
 39 41  1  0  0  0
 41 42  1  0  0  0
 42 43  2  0  0  0
 29 24  1  0  0  0
  9  3  1  0  0  0
 35 30  1  0  0  0
 42 36  1  0  0  0
 17 12  1  0  0  0
  1  2  1  0  0  0
 10 11  1  0  0  0
M  END
> <minimizedAffinity>
7.13415

> <CNNscore>
0.2132689953

> <CNNaffinity>
7.6950492859

> <CNN_VS>
1.6411154270

> <CNNaffinity_variance>
0.2635351717

$$$$
[H]Oc1c([H])c(C([H])([H])C([H])([H])[H])c(-c2c([H])c([H])c3c(-c4nc5c(n4[H])C([H])([H])C([H])([H])N(C(=O)c4c([H])c([H])c([H])c([H])c4[H])C5([H])[H])nn([H])c3c2[H])c([H])c1F


 39 44  0  0  0  0  0  0  0  0999 V2000
    9.4242   47.6366  131.0170 C   0  0  0  0  0  0  0  0  0  0  0  0
    9.9880   48.4170  130.0194 C   0  0  0  0  0  0  0  0  0  0  0  0
    9.3595   49.4957  129.4544 C   0  0  0  0  0  0  0  0  0  0  0  0
    8.0994   49.8578  129.8712 C   0  0  0  0  0  0  0  0  0  0  0  0
    7.2464   50.8428  129.5175 C   0  0  0  0  0  0  0  0  0  0  0  0
    6.1413   50.6562  130.3167 N   0  0  0  0  0  0  0  0  0  0  0  0
    6.3005   49.6356  131.1022 N   0  0  0  0  0  0  0  0  0  0  0  0
    7.5200   49.0945  130.8625 C   0  0  0  0  0  0  0  0  0  0  0  0
    8.1696   47.9966  131.4311 C   0  0  0  0  0  0  0  0  0  0  0  0
    5.6153   49.2884  131.7968 H   0  0  0  0  0  0  0  0  0  0  0  0
    7.3507   51.9205  128.5305 C   0  0  0  0  0  0  0  0  0  0  0  0
    6.2790   52.6893  128.1464 N   0  0  0  0  0  0  0  0  0  0  0  0
    6.6252   53.5956  127.2443 C   0  0  0  0  0  0  0  0  0  0  0  0
    5.8426   54.6743  126.5153 C   0  0  0  0  0  0  0  0  0  0  0  0
    6.6022   55.0794  125.3863 N   0  0  0  0  0  0  0  0  0  0  0  0
    7.9867   55.5450  125.7838 C   0  0  0  0  0  0  0  0  0  0  0  0
    8.7224   54.2591  126.0578 C   0  0  0  0  0  0  0  0  0  0  0  0
    7.9605   53.4371  127.0120 C   0  0  0  0  0  0  0  0  0  0  0  0
    8.3627   52.3989  127.8228 N   0  0  0  0  0  0  0  0  0  0  0  0
    6.3169   55.0689  124.0524 C   0  0  0  0  0  0  0  0  0  0  0  0
    7.2583   55.5985  123.2936 O   0  0  0  0  0  0  0  0  0  0  0  0
    9.3374   52.0761  127.8379 H   0  0  0  0  0  0  0  0  0  0  0  0
    5.1832   54.5901  123.3173 C   0  0  0  0  0  0  0  0  0  0  0  0
    5.3961   53.8576  122.1376 C   0  0  0  0  0  0  0  0  0  0  0  0
    4.3864   53.3132  121.3841 C   0  0  0  0  0  0  0  0  0  0  0  0
    3.0867   53.4744  121.7761 C   0  0  0  0  0  0  0  0  0  0  0  0
    2.8297   54.1810  122.9209 C   0  0  0  0  0  0  0  0  0  0  0  0
    3.8756   54.7268  123.6741 C   0  0  0  0  0  0  0  0  0  0  0  0
   10.0799   45.2648  130.9309 C   0  0  0  0  0  0  0  0  0  0  0  0
   10.8114   44.1870  131.4683 C   0  0  0  0  0  0  0  0  0  0  0  0
   11.5834   44.3033  132.5881 C   0  0  0  0  0  0  0  0  0  0  0  0
   12.3151   43.2745  133.1472 O   0  0  0  0  0  0  0  0  0  0  0  0
   11.6267   45.5482  133.1967 C   0  0  0  0  0  0  0  0  0  0  0  0
   12.3717   45.7640  134.3237 F   0  0  0  0  0  0  0  0  0  0  0  0
   10.9263   46.6120  132.6955 C   0  0  0  0  0  0  0  0  0  0  0  0
   10.1350   46.4865  131.5441 C   0  0  0  0  0  0  0  0  0  0  0  0
   12.8664   43.4003  133.9657 H   0  0  0  0  0  0  0  0  0  0  0  0
    8.6337   43.6695  129.7010 C   0  0  0  0  0  0  0  0  0  0  0  0
    9.2405   45.0636  129.7327 C   0  0  0  0  0  0  0  0  0  0  0  0
 38 39  1  0  0  0
 39 29  1  0  0  0
 29 30  2  0  0  0
 30 31  1  0  0  0
 31 32  1  0  0  0
 31 33  2  0  0  0
 33 34  1  0  0  0
 33 35  1  0  0  0
 35 36  2  0  0  0
 36  1  1  0  0  0
  1  2  2  0  0  0
  2  3  1  0  0  0
  3  4  2  0  0  0
  4  5  1  0  0  0
  5  6  2  0  0  0
  6  7  1  0  0  0
  7  8  1  0  0  0
  8  9  2  0  0  0
  5 11  1  0  0  0
 11 12  2  0  0  0
 12 13  1  0  0  0
 13 14  1  0  0  0
 14 15  1  0  0  0
 15 16  1  0  0  0
 16 17  1  0  0  0
 17 18  1  0  0  0
 18 19  1  0  0  0
 15 20  1  0  0  0
 20 21  2  0  0  0
 20 23  1  0  0  0
 23 24  2  0  0  0
 24 25  1  0  0  0
 25 26  2  0  0  0
 26 27  1  0  0  0
 27 28  2  0  0  0
 36 29  1  0  0  0
  9  1  1  0  0  0
 19 11  1  0  0  0
 28 23  1  0  0  0
  8  4  1  0  0  0
 18 13  2  0  0  0
 32 37  1  0  0  0
  7 10  1  0  0  0
 19 22  1  0  0  0
M  END
> <minimizedAffinity>
5.54663

> <CNNscore>
0.6081429720

> <CNNaffinity>
7.8354120255

> <CNN_VS>
4.7650508881

> <CNNaffinity_variance>
0.6945295930

$$$$
[H]Oc1c([H])c(C([H])([H])C([H])([H])[H])c(-c2c([H])c([H])c3c(-c4nc5c(n4[H])C([H])([H])C([H])([H])N(C(=O)c4c([H])c([H])c([H])c([H])c4[H])C5([H])[H])nn([H])c3c2[H])c([H])c1F


 39 44  0  0  0  0  0  0  0  0999 V2000
    9.5225   45.9844  130.7418 C   0  0  0  0  0  0  0  0  0  0  0  0
    8.8631   46.5584  129.6658 C   0  0  0  0  0  0  0  0  0  0  0  0
    8.5508   47.8906  129.5911 C   0  0  0  0  0  0  0  0  0  0  0  0
    8.8924   48.7393  130.6185 C   0  0  0  0  0  0  0  0  0  0  0  0
    8.7268   50.0624  130.8305 C   0  0  0  0  0  0  0  0  0  0  0  0
    9.2972   50.2965  132.0612 N   0  0  0  0  0  0  0  0  0  0  0  0
    9.7773   49.2029  132.5686 N   0  0  0  0  0  0  0  0  0  0  0  0
    9.5487   48.1887  131.6988 C   0  0  0  0  0  0  0  0  0  0  0  0
    9.8617   46.8291  131.7648 C   0  0  0  0  0  0  0  0  0  0  0  0
   10.2553   49.1138  133.4830 H   0  0  0  0  0  0  0  0  0  0  0  0
    8.1038   51.1129  130.0213 C   0  0  0  0  0  0  0  0  0  0  0  0
    7.4591   50.8599  128.8350 N   0  0  0  0  0  0  0  0  0  0  0  0
    6.9803   51.9693  128.2919 C   0  0  0  0  0  0  0  0  0  0  0  0
    6.1975   52.2377  127.0180 C   0  0  0  0  0  0  0  0  0  0  0  0
    6.2964   53.6237  126.7267 N   0  0  0  0  0  0  0  0  0  0  0  0
    5.8159   54.4723  127.8846 C   0  0  0  0  0  0  0  0  0  0  0  0
    6.9563   54.4015  128.8665 C   0  0  0  0  0  0  0  0  0  0  0  0
    7.3082   52.9964  129.1284 C   0  0  0  0  0  0  0  0  0  0  0  0
    7.9960   52.4239  130.1752 N   0  0  0  0  0  0  0  0  0  0  0  0
    6.7819   54.2875  125.6384 C   0  0  0  0  0  0  0  0  0  0  0  0
    6.6408   55.5987  125.6970 O   0  0  0  0  0  0  0  0  0  0  0  0
    8.3584   52.9888  130.9525 H   0  0  0  0  0  0  0  0  0  0  0  0
    7.4180   53.8276  124.4390 C   0  0  0  0  0  0  0  0  0  0  0  0
    7.0384   54.3889  123.2083 C   0  0  0  0  0  0  0  0  0  0  0  0
    7.6147   54.0571  122.0076 C   0  0  0  0  0  0  0  0  0  0  0  0
    8.6189   53.1303  121.9717 C   0  0  0  0  0  0  0  0  0  0  0  0
    9.0237   52.5559  123.1474 C   0  0  0  0  0  0  0  0  0  0  0  0
    8.4220   52.9103  124.3605 C   0  0  0  0  0  0  0  0  0  0  0  0
    9.8977   43.8690  131.9448 C   0  0  0  0  0  0  0  0  0  0  0  0
   10.1296   42.4795  131.9143 C   0  0  0  0  0  0  0  0  0  0  0  0
   10.2536   41.7764  130.7507 C   0  0  0  0  0  0  0  0  0  0  0  0
   10.4807   40.4166  130.6758 O   0  0  0  0  0  0  0  0  0  0  0  0
   10.1415   42.4912  129.5681 C   0  0  0  0  0  0  0  0  0  0  0  0
   10.2518   41.8757  128.3512 F   0  0  0  0  0  0  0  0  0  0  0  0
    9.9161   43.8412  129.5691 C   0  0  0  0  0  0  0  0  0  0  0  0
    9.7889   44.5582  130.7680 C   0  0  0  0  0  0  0  0  0  0  0  0
   10.5652   39.9406  129.8063 H   0  0  0  0  0  0  0  0  0  0  0  0
   11.1436   44.6144  133.9551 C   0  0  0  0  0  0  0  0  0  0  0  0
    9.8026   44.5739  133.2390 C   0  0  0  0  0  0  0  0  0  0  0  0
 38 39  1  0  0  0
 39 29  1  0  0  0
 29 30  2  0  0  0
 30 31  1  0  0  0
 31 32  1  0  0  0
 31 33  2  0  0  0
 33 34  1  0  0  0
 33 35  1  0  0  0
 35 36  2  0  0  0
 36  1  1  0  0  0
  1  2  2  0  0  0
  2  3  1  0  0  0
  3  4  2  0  0  0
  4  5  1  0  0  0
  5  6  2  0  0  0
  6  7  1  0  0  0
  7  8  1  0  0  0
  8  9  2  0  0  0
  5 11  1  0  0  0
 11 12  2  0  0  0
 12 13  1  0  0  0
 13 14  1  0  0  0
 14 15  1  0  0  0
 15 16  1  0  0  0
 16 17  1  0  0  0
 17 18  1  0  0  0
 18 19  1  0  0  0
 15 20  1  0  0  0
 20 21  2  0  0  0
 20 23  1  0  0  0
 23 24  2  0  0  0
 24 25  1  0  0  0
 25 26  2  0  0  0
 26 27  1  0  0  0
 27 28  2  0  0  0
 36 29  1  0  0  0
  9  1  1  0  0  0
 19 11  1  0  0  0
 28 23  1  0  0  0
  8  4  1  0  0  0
 18 13  2  0  0  0
 32 37  1  0  0  0
  7 10  1  0  0  0
 19 22  1  0  0  0
M  END
> <minimizedAffinity>
26.22916

> <CNNscore>
0.3917978108

> <CNNaffinity>
7.4605431557

> <CNN_VS>
2.9230244160

> <CNNaffinity_variance>
0.6248086095

$$$$
[H]Oc1c([H])c(C([H])([H])C([H])([H])[H])c(-c2c([H])c([H])c3c(-c4nc5c(n4[H])C([H])([H])C([H])([H])N(C(=O)c4c([H])c([H])c([H])c([H])c4[H])C5([H])[H])nn([H])c3c2[H])c([H])c1F


 39 44  0  0  0  0  0  0  0  0999 V2000
    8.9334   45.4433  130.6721 C   0  0  0  0  0  0  0  0  0  0  0  0
    9.5822   46.6395  130.4069 C   0  0  0  0  0  0  0  0  0  0  0  0
    8.9414   47.7681  129.9671 C   0  0  0  0  0  0  0  0  0  0  0  0
    7.5807   47.7559  129.7648 C   0  0  0  0  0  0  0  0  0  0  0  0
    6.6905   48.6821  129.3494 C   0  0  0  0  0  0  0  0  0  0  0  0
    5.4759   48.0345  129.3621 N   0  0  0  0  0  0  0  0  0  0  0  0
    5.6070   46.8047  129.7549 N   0  0  0  0  0  0  0  0  0  0  0  0
    6.9159   46.5758  130.0223 C   0  0  0  0  0  0  0  0  0  0  0  0
    7.5792   45.4310  130.4699 C   0  0  0  0  0  0  0  0  0  0  0  0
    4.8441   46.1108  129.8501 H   0  0  0  0  0  0  0  0  0  0  0  0
    6.8497   50.0824  128.9487 C   0  0  0  0  0  0  0  0  0  0  0  0
    5.9539   50.7344  128.1366 N   0  0  0  0  0  0  0  0  0  0  0  0
    6.3153   51.9901  127.9184 C   0  0  0  0  0  0  0  0  0  0  0  0
    5.6874   53.1184  127.1182 C   0  0  0  0  0  0  0  0  0  0  0  0
    6.6828   54.1065  126.8984 N   0  0  0  0  0  0  0  0  0  0  0  0
    7.2832   54.5921  128.2004 C   0  0  0  0  0  0  0  0  0  0  0  0
    8.2098   53.4722  128.5970 C   0  0  0  0  0  0  0  0  0  0  0  0
    7.4816   52.1930  128.5972 C   0  0  0  0  0  0  0  0  0  0  0  0
    7.7708   50.9961  129.2142 N   0  0  0  0  0  0  0  0  0  0  0  0
    7.2005   54.6299  125.7501 C   0  0  0  0  0  0  0  0  0  0  0  0
    8.0764   55.5984  125.9437 O   0  0  0  0  0  0  0  0  0  0  0  0
    8.6089   50.8809  129.7963 H   0  0  0  0  0  0  0  0  0  0  0  0
    6.9713   54.3257  124.3681 C   0  0  0  0  0  0  0  0  0  0  0  0
    8.0465   53.8809  123.5810 C   0  0  0  0  0  0  0  0  0  0  0  0
    7.9288   53.5174  122.2627 C   0  0  0  0  0  0  0  0  0  0  0  0
    6.7086   53.5802  121.6495 C   0  0  0  0  0  0  0  0  0  0  0  0
    5.6299   54.0076  122.3773 C   0  0  0  0  0  0  0  0  0  0  0  0
    5.7734   54.3726  123.7210 C   0  0  0  0  0  0  0  0  0  0  0  0
   10.5473   44.3289  132.1608 C   0  0  0  0  0  0  0  0  0  0  0  0
   11.2299   43.1608  132.5548 C   0  0  0  0  0  0  0  0  0  0  0  0
   11.0693   41.9621  131.9216 C   0  0  0  0  0  0  0  0  0  0  0  0
   11.7173   40.7951  132.2745 O   0  0  0  0  0  0  0  0  0  0  0  0
   10.1902   41.9286  130.8501 C   0  0  0  0  0  0  0  0  0  0  0  0
    9.9627   40.7744  130.1519 F   0  0  0  0  0  0  0  0  0  0  0  0
    9.5141   43.0484  130.4468 C   0  0  0  0  0  0  0  0  0  0  0  0
    9.6829   44.2773  131.1017 C   0  0  0  0  0  0  0  0  0  0  0  0
   11.5727   39.9403  131.7866 H   0  0  0  0  0  0  0  0  0  0  0  0
   12.0123   45.5169  133.7707 C   0  0  0  0  0  0  0  0  0  0  0  0
   10.7891   45.6009  132.8710 C   0  0  0  0  0  0  0  0  0  0  0  0
 38 39  1  0  0  0
 39 29  1  0  0  0
 29 30  2  0  0  0
 30 31  1  0  0  0
 31 32  1  0  0  0
 31 33  2  0  0  0
 33 34  1  0  0  0
 33 35  1  0  0  0
 35 36  2  0  0  0
 36  1  1  0  0  0
  1  2  2  0  0  0
  2  3  1  0  0  0
  3  4  2  0  0  0
  4  5  1  0  0  0
  5  6  2  0  0  0
  6  7  1  0  0  0
  7  8  1  0  0  0
  8  9  2  0  0  0
  5 11  1  0  0  0
 11 12  2  0  0  0
 12 13  1  0  0  0
 13 14  1  0  0  0
 14 15  1  0  0  0
 15 16  1  0  0  0
 16 17  1  0  0  0
 17 18  1  0  0  0
 18 19  1  0  0  0
 15 20  1  0  0  0
 20 21  2  0  0  0
 20 23  1  0  0  0
 23 24  2  0  0  0
 24 25  1  0  0  0
 25 26  2  0  0  0
 26 27  1  0  0  0
 27 28  2  0  0  0
 36 29  1  0  0  0
  9  1  1  0  0  0
 19 11  1  0  0  0
 28 23  1  0  0  0
  8  4  1  0  0  0
 18 13  2  0  0  0
 32 37  1  0  0  0
  7 10  1  0  0  0
 19 22  1  0  0  0
M  END
> <minimizedAffinity>
13.98296

> <CNNscore>
0.3489807844

> <CNNaffinity>
7.4394197464

> <CNN_VS>
2.5962145329

> <CNNaffinity_variance>
0.3581123650

$$$$
[H]Oc1c([H])c(C([H])([H])C([H])([H])[H])c(-c2c([H])c([H])c3c(-c4nc5c(n4[H])C([H])([H])C([H])([H])N(C(=O)c4c([H])c([H])c([H])c([H])c4[H])C5([H])[H])nn([H])c3c2[H])c([H])c1F


 39 44  0  0  0  0  0  0  0  0999 V2000
    6.6986   52.2320  127.8468 C   0  0  0  0  0  0  0  0  0  0  0  0
    7.1410   50.9890  127.4209 C   0  0  0  0  0  0  0  0  0  0  0  0
    7.8164   50.1084  128.2247 C   0  0  0  0  0  0  0  0  0  0  0  0
    8.0908   50.4368  129.5322 C   0  0  0  0  0  0  0  0  0  0  0  0
    8.7195   49.7990  130.5426 C   0  0  0  0  0  0  0  0  0  0  0  0
    8.6579   50.6733  131.6041 N   0  0  0  0  0  0  0  0  0  0  0  0
    8.0393   51.7652  131.2739 N   0  0  0  0  0  0  0  0  0  0  0  0
    7.6599   51.6689  129.9762 C   0  0  0  0  0  0  0  0  0  0  0  0
    6.9725   52.5591  129.1479 C   0  0  0  0  0  0  0  0  0  0  0  0
    7.8625   52.5764  131.8929 H   0  0  0  0  0  0  0  0  0  0  0  0
    9.3604   48.4838  130.6217 C   0  0  0  0  0  0  0  0  0  0  0  0
    8.7482   47.3272  130.2040 N   0  0  0  0  0  0  0  0  0  0  0  0
    9.5283   46.2706  130.3773 C   0  0  0  0  0  0  0  0  0  0  0  0
    9.3410   44.7925  130.0811 C   0  0  0  0  0  0  0  0  0  0  0  0
   10.3105   44.0702  130.8253 N   0  0  0  0  0  0  0  0  0  0  0  0
   11.7152   44.5431  130.5176 C   0  0  0  0  0  0  0  0  0  0  0  0
   11.8207   45.8411  131.2753 C   0  0  0  0  0  0  0  0  0  0  0  0
   10.6942   46.7212  130.9247 C   0  0  0  0  0  0  0  0  0  0  0  0
   10.5458   48.0842  131.0562 N   0  0  0  0  0  0  0  0  0  0  0  0
   10.1838   43.0954  131.7710 C   0  0  0  0  0  0  0  0  0  0  0  0
   11.3318   42.6022  132.1970 O   0  0  0  0  0  0  0  0  0  0  0  0
   11.2924   48.6702  131.4485 H   0  0  0  0  0  0  0  0  0  0  0  0
    9.0348   42.5034  132.3909 C   0  0  0  0  0  0  0  0  0  0  0  0
    7.9318   42.1581  131.5922 C   0  0  0  0  0  0  0  0  0  0  0  0
    6.8027   41.5441  132.0738 C   0  0  0  0  0  0  0  0  0  0  0  0
    6.7137   41.2369  133.4029 C   0  0  0  0  0  0  0  0  0  0  0  0
    7.7652   41.5538  134.2213 C   0  0  0  0  0  0  0  0  0  0  0  0
    8.9074   42.1793  133.7079 C   0  0  0  0  0  0  0  0  0  0  0  0
    6.7099   54.0169  126.1507 C   0  0  0  0  0  0  0  0  0  0  0  0
    6.0048   54.8453  125.2550 C   0  0  0  0  0  0  0  0  0  0  0  0
    4.6466   54.8042  125.1238 C   0  0  0  0  0  0  0  0  0  0  0  0
    3.9173   55.5968  124.2599 O   0  0  0  0  0  0  0  0  0  0  0  0
    3.9640   53.8980  125.9205 C   0  0  0  0  0  0  0  0  0  0  0  0
    2.6021   53.7830  125.8615 F   0  0  0  0  0  0  0  0  0  0  0  0
    4.6242   53.0814  126.7986 C   0  0  0  0  0  0  0  0  0  0  0  0
    6.0201   53.1278  126.9286 C   0  0  0  0  0  0  0  0  0  0  0  0
    2.9265   55.5363  124.1939 H   0  0  0  0  0  0  0  0  0  0  0  0
    8.6360   55.5788  126.1572 C   0  0  0  0  0  0  0  0  0  0  0  0
    8.1777   54.1327  126.2645 C   0  0  0  0  0  0  0  0  0  0  0  0
 38 39  1  0  0  0
 39 29  1  0  0  0
 29 30  2  0  0  0
 30 31  1  0  0  0
 31 32  1  0  0  0
 31 33  2  0  0  0
 33 34  1  0  0  0
 33 35  1  0  0  0
 35 36  2  0  0  0
 36  1  1  0  0  0
  1  2  2  0  0  0
  2  3  1  0  0  0
  3  4  2  0  0  0
  4  5  1  0  0  0
  5  6  2  0  0  0
  6  7  1  0  0  0
  7  8  1  0  0  0
  8  9  2  0  0  0
  5 11  1  0  0  0
 11 12  2  0  0  0
 12 13  1  0  0  0
 13 14  1  0  0  0
 14 15  1  0  0  0
 15 16  1  0  0  0
 16 17  1  0  0  0
 17 18  1  0  0  0
 18 19  1  0  0  0
 15 20  1  0  0  0
 20 21  2  0  0  0
 20 23  1  0  0  0
 23 24  2  0  0  0
 24 25  1  0  0  0
 25 26  2  0  0  0
 26 27  1  0  0  0
 27 28  2  0  0  0
 36 29  1  0  0  0
  9  1  1  0  0  0
 19 11  1  0  0  0
 28 23  1  0  0  0
  8  4  1  0  0  0
 18 13  2  0  0  0
 32 37  1  0  0  0
  7 10  1  0  0  0
 19 22  1  0  0  0
M  END
> <minimizedAffinity>
27.35513

> <CNNscore>
0.3453692198

> <CNNaffinity>
7.0003228188

> <CNN_VS>
2.4176959991

> <CNNaffinity_variance>
1.8949501514

$$$$
[H]Oc1c([H])c(C([H])([H])C([H])([H])[H])c(-c2c([H])c([H])c3c(-c4nc5c(n4[H])C([H])([H])C([H])([H])N(C(=O)c4c([H])c([H])c([H])c([H])c4[H])C5([H])[H])nn([H])c3c2[H])c([H])c1F


 39 44  0  0  0  0  0  0  0  0999 V2000
    8.8312   45.8513  130.5813 C   0  0  0  0  0  0  0  0  0  0  0  0
    9.5018   46.9876  130.1558 C   0  0  0  0  0  0  0  0  0  0  0  0
    8.8712   48.1022  129.6683 C   0  0  0  0  0  0  0  0  0  0  0  0
    7.4987   48.1366  129.5797 C   0  0  0  0  0  0  0  0  0  0  0  0
    6.6137   49.0638  129.1553 C   0  0  0  0  0  0  0  0  0  0  0  0
    5.3799   48.4779  129.3262 N   0  0  0  0  0  0  0  0  0  0  0  0
    5.4951   47.2825  129.8179 N   0  0  0  0  0  0  0  0  0  0  0  0
    6.8121   47.0164  129.9974 C   0  0  0  0  0  0  0  0  0  0  0  0
    7.4652   45.8853  130.4923 C   0  0  0  0  0  0  0  0  0  0  0  0
    4.7163   46.6364  130.0381 H   0  0  0  0  0  0  0  0  0  0  0  0
    6.7936   50.4143  128.6165 C   0  0  0  0  0  0  0  0  0  0  0  0
    5.7680   51.1414  128.0630 N   0  0  0  0  0  0  0  0  0  0  0  0
    6.1794   52.3305  127.6482 C   0  0  0  0  0  0  0  0  0  0  0  0
    5.4625   53.4957  126.9878 C   0  0  0  0  0  0  0  0  0  0  0  0
    6.4434   54.3383  126.4018 N   0  0  0  0  0  0  0  0  0  0  0  0
    7.4650   54.7966  127.4205 C   0  0  0  0  0  0  0  0  0  0  0  0
    8.3406   53.5848  127.6068 C   0  0  0  0  0  0  0  0  0  0  0  0
    7.5129   52.4104  127.9265 C   0  0  0  0  0  0  0  0  0  0  0  0
    7.8456   51.2129  128.5200 N   0  0  0  0  0  0  0  0  0  0  0  0
    6.6359   54.7432  125.1136 C   0  0  0  0  0  0  0  0  0  0  0  0
    7.6291   55.5988  124.9580 O   0  0  0  0  0  0  0  0  0  0  0  0
    8.8045   51.0156  128.8302 H   0  0  0  0  0  0  0  0  0  0  0  0
    5.9602   54.4138  123.8930 C   0  0  0  0  0  0  0  0  0  0  0  0
    4.5555   54.4028  123.8734 C   0  0  0  0  0  0  0  0  0  0  0  0
    3.8094   54.1487  122.7498 C   0  0  0  0  0  0  0  0  0  0  0  0
    4.4382   53.8871  121.5645 C   0  0  0  0  0  0  0  0  0  0  0  0
    5.8075   53.8876  121.5343 C   0  0  0  0  0  0  0  0  0  0  0  0
    6.5480   54.1503  122.6927 C   0  0  0  0  0  0  0  0  0  0  0  0
    9.9052   43.6660  130.2153 C   0  0  0  0  0  0  0  0  0  0  0  0
   10.6453   42.5774  130.7181 C   0  0  0  0  0  0  0  0  0  0  0  0
   11.0475   42.4958  132.0201 C   0  0  0  0  0  0  0  0  0  0  0  0
   11.7729   41.4489  132.5532 O   0  0  0  0  0  0  0  0  0  0  0  0
   10.6959   43.5453  132.8549 C   0  0  0  0  0  0  0  0  0  0  0  0
   11.0524   43.5545  134.1756 F   0  0  0  0  0  0  0  0  0  0  0  0
    9.9778   44.6148  132.3924 C   0  0  0  0  0  0  0  0  0  0  0  0
    9.5677   44.6935  131.0533 C   0  0  0  0  0  0  0  0  0  0  0  0
   12.0472   41.4269  133.5092 H   0  0  0  0  0  0  0  0  0  0  0  0
   10.5351   44.2925  127.9002 C   0  0  0  0  0  0  0  0  0  0  0  0
    9.4762   43.6781  128.8023 C   0  0  0  0  0  0  0  0  0  0  0  0
 38 39  1  0  0  0
 39 29  1  0  0  0
 29 30  2  0  0  0
 30 31  1  0  0  0
 31 32  1  0  0  0
 31 33  2  0  0  0
 33 34  1  0  0  0
 33 35  1  0  0  0
 35 36  2  0  0  0
 36  1  1  0  0  0
  1  2  2  0  0  0
  2  3  1  0  0  0
  3  4  2  0  0  0
  4  5  1  0  0  0
  5  6  2  0  0  0
  6  7  1  0  0  0
  7  8  1  0  0  0
  8  9  2  0  0  0
  5 11  1  0  0  0
 11 12  2  0  0  0
 12 13  1  0  0  0
 13 14  1  0  0  0
 14 15  1  0  0  0
 15 16  1  0  0  0
 16 17  1  0  0  0
 17 18  1  0  0  0
 18 19  1  0  0  0
 15 20  1  0  0  0
 20 21  2  0  0  0
 20 23  1  0  0  0
 23 24  2  0  0  0
 24 25  1  0  0  0
 25 26  2  0  0  0
 26 27  1  0  0  0
 27 28  2  0  0  0
 36 29  1  0  0  0
  9  1  1  0  0  0
 19 11  1  0  0  0
 28 23  1  0  0  0
  8  4  1  0  0  0
 18 13  2  0  0  0
 32 37  1  0  0  0
  7 10  1  0  0  0
 19 22  1  0  0  0
M  END
> <minimizedAffinity>
10.26864

> <CNNscore>
0.3332945704

> <CNNaffinity>
7.5244293213

> <CNN_VS>
2.5078513622

> <CNNaffinity_variance>
0.2491601408

$$$$
[H]Oc1c([H])c(C([H])([H])C([H])([H])[H])c(-c2c([H])c([H])c3c(-c4nc5c(n4[H])C([H])([H])C([H])([H])N(C(=O)c4c([H])c([H])c([H])c([H])c4[H])C5([H])[H])nn([H])c3c2[H])c([H])c1F


 39 44  0  0  0  0  0  0  0  0999 V2000
    9.2578   45.5872  130.6519 C   0  0  0  0  0  0  0  0  0  0  0  0
    8.8932   46.2740  129.5040 C   0  0  0  0  0  0  0  0  0  0  0  0
    8.5845   47.6090  129.4851 C   0  0  0  0  0  0  0  0  0  0  0  0
    8.6265   48.3446  130.6469 C   0  0  0  0  0  0  0  0  0  0  0  0
    8.3842   49.6399  130.9408 C   0  0  0  0  0  0  0  0  0  0  0  0
    8.6059   49.7416  132.2956 N   0  0  0  0  0  0  0  0  0  0  0  0
    8.9576   48.5980  132.7979 N   0  0  0  0  0  0  0  0  0  0  0  0
    8.9866   47.6807  131.8004 C   0  0  0  0  0  0  0  0  0  0  0  0
    9.2987   46.3193  131.8083 C   0  0  0  0  0  0  0  0  0  0  0  0
    9.1799   48.4115  133.7921 H   0  0  0  0  0  0  0  0  0  0  0  0
    7.9748   50.7728  130.1069 C   0  0  0  0  0  0  0  0  0  0  0  0
    7.2532   50.6257  128.9473 N   0  0  0  0  0  0  0  0  0  0  0  0
    7.0058   51.7939  128.3734 C   0  0  0  0  0  0  0  0  0  0  0  0
    6.2580   52.1826  127.1095 C   0  0  0  0  0  0  0  0  0  0  0  0
    6.6419   53.5046  126.7624 N   0  0  0  0  0  0  0  0  0  0  0  0
    6.3916   54.4740  127.8978 C   0  0  0  0  0  0  0  0  0  0  0  0
    7.5213   54.1917  128.8537 C   0  0  0  0  0  0  0  0  0  0  0  0
    7.5725   52.7531  129.1612 C   0  0  0  0  0  0  0  0  0  0  0  0
    8.1552   52.0806  130.2124 N   0  0  0  0  0  0  0  0  0  0  0  0
    7.2230   54.0125  125.6377 C   0  0  0  0  0  0  0  0  0  0  0  0
    7.3678   55.3246  125.6488 O   0  0  0  0  0  0  0  0  0  0  0  0
    8.6548   52.5794  130.9581 H   0  0  0  0  0  0  0  0  0  0  0  0
    7.7071   53.3877  124.4418 C   0  0  0  0  0  0  0  0  0  0  0  0
    7.4704   54.0095  123.2045 C   0  0  0  0  0  0  0  0  0  0  0  0
    7.9294   53.5238  122.0056 C   0  0  0  0  0  0  0  0  0  0  0  0
    8.6625   52.3703  121.9785 C   0  0  0  0  0  0  0  0  0  0  0  0
    8.9197   51.7286  123.1609 C   0  0  0  0  0  0  0  0  0  0  0  0
    8.4420   52.2428  124.3720 C   0  0  0  0  0  0  0  0  0  0  0  0
   10.0048   43.5625  129.4664 C   0  0  0  0  0  0  0  0  0  0  0  0
   10.2862   42.1818  129.4798 C   0  0  0  0  0  0  0  0  0  0  0  0
   10.1115   41.4029  130.5872 C   0  0  0  0  0  0  0  0  0  0  0  0
   10.3745   40.0486  130.6436 O   0  0  0  0  0  0  0  0  0  0  0  0
    9.6358   42.0290  131.7290 C   0  0  0  0  0  0  0  0  0  0  0  0
    9.4278   41.3330  132.8883 F   0  0  0  0  0  0  0  0  0  0  0  0
    9.3548   43.3686  131.7435 C   0  0  0  0  0  0  0  0  0  0  0  0
    9.5368   44.1640  130.6025 C   0  0  0  0  0  0  0  0  0  0  0  0
   10.2337   39.5154  131.4716 H   0  0  0  0  0  0  0  0  0  0  0  0
    9.3464   43.7884  127.0863 C   0  0  0  0  0  0  0  0  0  0  0  0
   10.1883   44.3418  128.2255 C   0  0  0  0  0  0  0  0  0  0  0  0
 38 39  1  0  0  0
 39 29  1  0  0  0
 29 30  2  0  0  0
 30 31  1  0  0  0
 31 32  1  0  0  0
 31 33  2  0  0  0
 33 34  1  0  0  0
 33 35  1  0  0  0
 35 36  2  0  0  0
 36  1  1  0  0  0
  1  2  2  0  0  0
  2  3  1  0  0  0
  3  4  2  0  0  0
  4  5  1  0  0  0
  5  6  2  0  0  0
  6  7  1  0  0  0
  7  8  1  0  0  0
  8  9  2  0  0  0
  5 11  1  0  0  0
 11 12  2  0  0  0
 12 13  1  0  0  0
 13 14  1  0  0  0
 14 15  1  0  0  0
 15 16  1  0  0  0
 16 17  1  0  0  0
 17 18  1  0  0  0
 18 19  1  0  0  0
 15 20  1  0  0  0
 20 21  2  0  0  0
 20 23  1  0  0  0
 23 24  2  0  0  0
 24 25  1  0  0  0
 25 26  2  0  0  0
 26 27  1  0  0  0
 27 28  2  0  0  0
 36 29  1  0  0  0
  9  1  1  0  0  0
 19 11  1  0  0  0
 28 23  1  0  0  0
  8  4  1  0  0  0
 18 13  2  0  0  0
 32 37  1  0  0  0
  7 10  1  0  0  0
 19 22  1  0  0  0
M  END
> <minimizedAffinity>
30.10442

> <CNNscore>
0.2631631792

> <CNNaffinity>
7.0944304466

> <CNN_VS>
1.8669928312

> <CNNaffinity_variance>
0.5288981795

$$$$
[H]Oc1c([H])c(C([H])([H])C([H])([H])[H])c(-c2c([H])c([H])c3c(-c4nc5c(n4[H])C([H])([H])C([H])([H])N(C(=O)c4c([H])c([H])c([H])c([H])c4[H])C5([H])[H])nn([H])c3c2[H])c([H])c1F


 39 44  0  0  0  0  0  0  0  0999 V2000
    3.9191   51.1576  128.3146 C   0  0  0  0  0  0  0  0  0  0  0  0
    3.9414   49.7729  128.3789 C   0  0  0  0  0  0  0  0  0  0  0  0
    4.9456   49.0578  128.9773 C   0  0  0  0  0  0  0  0  0  0  0  0
    6.0080   49.7112  129.5579 C   0  0  0  0  0  0  0  0  0  0  0  0
    7.1175   49.2965  130.2059 C   0  0  0  0  0  0  0  0  0  0  0  0
    7.7831   50.4537  130.5416 N   0  0  0  0  0  0  0  0  0  0  0  0
    7.1343   51.5005  130.1326 N   0  0  0  0  0  0  0  0  0  0  0  0
    6.0057   51.0889  129.5049 C   0  0  0  0  0  0  0  0  0  0  0  0
    4.9770   51.8077  128.8918 C   0  0  0  0  0  0  0  0  0  0  0  0
    7.4248   52.4862  130.2611 H   0  0  0  0  0  0  0  0  0  0  0  0
    7.6143   47.9590  130.5391 C   0  0  0  0  0  0  0  0  0  0  0  0
    8.8357   47.7402  131.1284 N   0  0  0  0  0  0  0  0  0  0  0  0
    9.0578   46.4497  131.3295 C   0  0  0  0  0  0  0  0  0  0  0  0
   10.2210   45.6880  131.9413 C   0  0  0  0  0  0  0  0  0  0  0  0
   10.1139   44.3299  131.5418 N   0  0  0  0  0  0  0  0  0  0  0  0
    8.7749   43.7390  131.9283 C   0  0  0  0  0  0  0  0  0  0  0  0
    7.8307   44.3143  130.9049 C   0  0  0  0  0  0  0  0  0  0  0  0
    7.9631   45.7798  130.8660 C   0  0  0  0  0  0  0  0  0  0  0  0
    7.1042   46.7459  130.3909 N   0  0  0  0  0  0  0  0  0  0  0  0
   10.9660   43.5202  130.8497 C   0  0  0  0  0  0  0  0  0  0  0  0
   10.5481   42.2741  130.7266 O   0  0  0  0  0  0  0  0  0  0  0  0
    6.1941   46.5015  129.9826 H   0  0  0  0  0  0  0  0  0  0  0  0
   12.2343   43.7684  130.2294 C   0  0  0  0  0  0  0  0  0  0  0  0
   13.4075   43.3848  130.9002 C   0  0  0  0  0  0  0  0  0  0  0  0
   14.6683   43.5316  130.3782 C   0  0  0  0  0  0  0  0  0  0  0  0
   14.8272   44.0793  129.1358 C   0  0  0  0  0  0  0  0  0  0  0  0
   13.7115   44.4681  128.4428 C   0  0  0  0  0  0  0  0  0  0  0  0
   12.4352   44.3080  128.9948 C   0  0  0  0  0  0  0  0  0  0  0  0
    1.5776   51.3219  127.5707 C   0  0  0  0  0  0  0  0  0  0  0  0
    0.5582   52.0452  126.9200 C   0  0  0  0  0  0  0  0  0  0  0  0
    0.7710   53.2621  126.3391 C   0  0  0  0  0  0  0  0  0  0  0  0
   -0.1980   54.0033  125.6926 O   0  0  0  0  0  0  0  0  0  0  0  0
    2.0557   53.7782  126.4110 C   0  0  0  0  0  0  0  0  0  0  0  0
    2.3678   54.9903  125.8585 F   0  0  0  0  0  0  0  0  0  0  0  0
    3.0642   53.0969  127.0371 C   0  0  0  0  0  0  0  0  0  0  0  0
    2.8394   51.8470  127.6328 C   0  0  0  0  0  0  0  0  0  0  0  0
   -0.0022   54.8877  125.2813 H   0  0  0  0  0  0  0  0  0  0  0  0
   -0.0946   49.5002  127.7551 C   0  0  0  0  0  0  0  0  0  0  0  0
    1.2867   49.9965  128.1532 C   0  0  0  0  0  0  0  0  0  0  0  0
 38 39  1  0  0  0
 39 29  1  0  0  0
 29 30  2  0  0  0
 30 31  1  0  0  0
 31 32  1  0  0  0
 31 33  2  0  0  0
 33 34  1  0  0  0
 33 35  1  0  0  0
 35 36  2  0  0  0
 36  1  1  0  0  0
  1  2  2  0  0  0
  2  3  1  0  0  0
  3  4  2  0  0  0
  4  5  1  0  0  0
  5  6  2  0  0  0
  6  7  1  0  0  0
  7  8  1  0  0  0
  8  9  2  0  0  0
  5 11  1  0  0  0
 11 12  2  0  0  0
 12 13  1  0  0  0
 13 14  1  0  0  0
 14 15  1  0  0  0
 15 16  1  0  0  0
 16 17  1  0  0  0
 17 18  1  0  0  0
 18 19  1  0  0  0
 15 20  1  0  0  0
 20 21  2  0  0  0
 20 23  1  0  0  0
 23 24  2  0  0  0
 24 25  1  0  0  0
 25 26  2  0  0  0
 26 27  1  0  0  0
 27 28  2  0  0  0
 36 29  1  0  0  0
  9  1  1  0  0  0
 19 11  1  0  0  0
 28 23  1  0  0  0
  8  4  1  0  0  0
 18 13  2  0  0  0
 32 37  1  0  0  0
  7 10  1  0  0  0
 19 22  1  0  0  0
M  END
> <minimizedAffinity>
36.27674

> <CNNscore>
0.2504280806

> <CNNaffinity>
6.7818870544

> <CNN_VS>
1.6983749866

> <CNNaffinity_variance>
0.5005620718

$$$$
[H]Oc1c([H])c(C([H])([H])C([H])([H])[H])c(-c2c([H])c([H])c3c(-c4nc5c(n4[H])C([H])([H])C([H])([H])N(C(=O)c4c([H])c([H])c([H])c([H])c4[H])C5([H])[H])nn([H])c3c2[H])c([H])c1F


 39 44  0  0  0  0  0  0  0  0999 V2000
   10.0300   46.3750  131.3922 C   0  0  0  0  0  0  0  0  0  0  0  0
    9.3070   46.7387  130.2665 C   0  0  0  0  0  0  0  0  0  0  0  0
    8.8344   48.0059  130.0458 C   0  0  0  0  0  0  0  0  0  0  0  0
    9.0683   49.0009  130.9666 C   0  0  0  0  0  0  0  0  0  0  0  0
    8.7421   50.3095  131.0300 C   0  0  0  0  0  0  0  0  0  0  0  0
    9.2778   50.7494  132.2192 N   0  0  0  0  0  0  0  0  0  0  0  0
    9.8871   49.7870  132.8408 N   0  0  0  0  0  0  0  0  0  0  0  0
    9.7854   48.6604  132.0939 C   0  0  0  0  0  0  0  0  0  0  0  0
   10.2620   47.3652  132.3090 C   0  0  0  0  0  0  0  0  0  0  0  0
   10.3710   49.8610  133.7534 H   0  0  0  0  0  0  0  0  0  0  0  0
    7.9967   51.1780  130.1152 C   0  0  0  0  0  0  0  0  0  0  0  0
    7.9769   50.9895  128.7546 N   0  0  0  0  0  0  0  0  0  0  0  0
    7.2346   51.9019  128.1450 C   0  0  0  0  0  0  0  0  0  0  0  0
    6.8823   52.1358  126.6859 C   0  0  0  0  0  0  0  0  0  0  0  0
    6.3982   53.4645  126.5597 N   0  0  0  0  0  0  0  0  0  0  0  0
    5.2245   53.7200  127.4810 C   0  0  0  0  0  0  0  0  0  0  0  0
    5.8700   53.8794  128.8330 C   0  0  0  0  0  0  0  0  0  0  0  0
    6.7410   52.7265  129.1137 C   0  0  0  0  0  0  0  0  0  0  0  0
    7.2344   52.2440  130.3056 N   0  0  0  0  0  0  0  0  0  0  0  0
    6.8333   54.5191  125.8119 C   0  0  0  0  0  0  0  0  0  0  0  0
    6.0747   55.5957  125.9020 O   0  0  0  0  0  0  0  0  0  0  0  0
    7.0083   52.6927  131.2012 H   0  0  0  0  0  0  0  0  0  0  0  0
    7.9626   54.6787  124.9435 C   0  0  0  0  0  0  0  0  0  0  0  0
    9.0828   53.8501  125.1233 C   0  0  0  0  0  0  0  0  0  0  0  0
   10.1955   53.8855  124.3206 C   0  0  0  0  0  0  0  0  0  0  0  0
   10.2494   54.7665  123.2766 C   0  0  0  0  0  0  0  0  0  0  0  0
    9.1799   55.5947  123.0613 C   0  0  0  0  0  0  0  0  0  0  0  0
    8.0551   55.5405  123.8926 C   0  0  0  0  0  0  0  0  0  0  0  0
   10.5508   44.1293  130.5272 C   0  0  0  0  0  0  0  0  0  0  0  0
   11.0093   42.8165  130.7551 C   0  0  0  0  0  0  0  0  0  0  0  0
   11.3803   42.3673  131.9897 C   0  0  0  0  0  0  0  0  0  0  0  0
   11.8345   41.0911  132.2567 O   0  0  0  0  0  0  0  0  0  0  0  0
   11.2896   43.2670  133.0406 C   0  0  0  0  0  0  0  0  0  0  0  0
   11.6381   42.9107  134.3147 F   0  0  0  0  0  0  0  0  0  0  0  0
   10.8479   44.5480  132.8470 C   0  0  0  0  0  0  0  0  0  0  0  0
   10.4685   45.0040  131.5759 C   0  0  0  0  0  0  0  0  0  0  0  0
   12.0956   40.8022  133.1722 H   0  0  0  0  0  0  0  0  0  0  0  0
   10.2729   43.4035  128.1723 C   0  0  0  0  0  0  0  0  0  0  0  0
   10.1371   44.5423  129.1710 C   0  0  0  0  0  0  0  0  0  0  0  0
 38 39  1  0  0  0
 39 29  1  0  0  0
 29 30  2  0  0  0
 30 31  1  0  0  0
 31 32  1  0  0  0
 31 33  2  0  0  0
 33 34  1  0  0  0
 33 35  1  0  0  0
 35 36  2  0  0  0
 36  1  1  0  0  0
  1  2  2  0  0  0
  2  3  1  0  0  0
  3  4  2  0  0  0
  4  5  1  0  0  0
  5  6  2  0  0  0
  6  7  1  0  0  0
  7  8  1  0  0  0
  8  9  2  0  0  0
  5 11  1  0  0  0
 11 12  2  0  0  0
 12 13  1  0  0  0
 13 14  1  0  0  0
 14 15  1  0  0  0
 15 16  1  0  0  0
 16 17  1  0  0  0
 17 18  1  0  0  0
 18 19  1  0  0  0
 15 20  1  0  0  0
 20 21  2  0  0  0
 20 23  1  0  0  0
 23 24  2  0  0  0
 24 25  1  0  0  0
 25 26  2  0  0  0
 26 27  1  0  0  0
 27 28  2  0  0  0
 36 29  1  0  0  0
  9  1  1  0  0  0
 19 11  1  0  0  0
 28 23  1  0  0  0
  8  4  1  0  0  0
 18 13  2  0  0  0
 32 37  1  0  0  0
  7 10  1  0  0  0
 19 22  1  0  0  0
M  END
> <minimizedAffinity>
24.23774

> <CNNscore>
0.2381150723

> <CNNaffinity>
7.3588914871

> <CNN_VS>
1.7522629499

> <CNNaffinity_variance>
0.3753200471

$$$$
[H]Oc1c([H])c(C([H])([H])C([H])([H])[H])c(-c2c([H])c([H])c3c(-c4nc5c(n4[H])C([H])([H])C([H])([H])N(C(=O)c4c([H])c([H])c([H])c([H])c4[H])C5([H])[H])nn([H])c3c2[H])c([H])c1F


 39 44  0  0  0  0  0  0  0  0999 V2000
    8.0982   47.0699  129.8903 C   0  0  0  0  0  0  0  0  0  0  0  0
    7.9988   48.2853  129.2308 C   0  0  0  0  0  0  0  0  0  0  0  0
    6.8065   48.8600  128.8759 C   0  0  0  0  0  0  0  0  0  0  0  0
    5.6202   48.2294  129.1717 C   0  0  0  0  0  0  0  0  0  0  0  0
    4.3223   48.5348  128.9588 C   0  0  0  0  0  0  0  0  0  0  0  0
    3.6190   47.4826  129.5000 N   0  0  0  0  0  0  0  0  0  0  0  0
    4.4208   46.5972  130.0072 N   0  0  0  0  0  0  0  0  0  0  0  0
    5.6964   47.0189  129.8272 C   0  0  0  0  0  0  0  0  0  0  0  0
    6.9173   46.4419  130.1838 C   0  0  0  0  0  0  0  0  0  0  0  0
    4.1395   45.7156  130.4722 H   0  0  0  0  0  0  0  0  0  0  0  0
    3.6799   49.6837  128.3154 C   0  0  0  0  0  0  0  0  0  0  0  0
    3.4637   49.7580  126.9609 N   0  0  0  0  0  0  0  0  0  0  0  0
    2.8688   50.8921  126.6218 C   0  0  0  0  0  0  0  0  0  0  0  0
    2.4092   51.4553  125.2879 C   0  0  0  0  0  0  0  0  0  0  0  0
    2.2095   52.8519  125.4474 N   0  0  0  0  0  0  0  0  0  0  0  0
    1.2319   53.1513  126.5637 C   0  0  0  0  0  0  0  0  0  0  0  0
    2.0478   52.9313  127.8110 C   0  0  0  0  0  0  0  0  0  0  0  0
    2.6782   51.6017  127.7717 C   0  0  0  0  0  0  0  0  0  0  0  0
    3.1907   50.8215  128.7844 N   0  0  0  0  0  0  0  0  0  0  0  0
    2.7713   53.9240  124.8185 C   0  0  0  0  0  0  0  0  0  0  0  0
    2.2764   55.0899  125.1906 O   0  0  0  0  0  0  0  0  0  0  0  0
    3.1707   51.1312  129.7633 H   0  0  0  0  0  0  0  0  0  0  0  0
    3.8008   54.0233  123.8260 C   0  0  0  0  0  0  0  0  0  0  0  0
    5.0152   54.6438  124.1636 C   0  0  0  0  0  0  0  0  0  0  0  0
    6.0824   54.7501  123.3073 C   0  0  0  0  0  0  0  0  0  0  0  0
    5.9918   54.2329  122.0451 C   0  0  0  0  0  0  0  0  0  0  0  0
    4.8269   53.6175  121.6704 C   0  0  0  0  0  0  0  0  0  0  0  0
    3.7514   53.5201  122.5611 C   0  0  0  0  0  0  0  0  0  0  0  0
    9.9789   46.6753  131.4298 C   0  0  0  0  0  0  0  0  0  0  0  0
   11.2300   46.0819  131.6914 C   0  0  0  0  0  0  0  0  0  0  0  0
   11.9010   45.3344  130.7670 C   0  0  0  0  0  0  0  0  0  0  0  0
   13.1267   44.7361  130.9816 O   0  0  0  0  0  0  0  0  0  0  0  0
   11.2974   45.1728  129.5295 C   0  0  0  0  0  0  0  0  0  0  0  0
   11.8917   44.4415  128.5377 F   0  0  0  0  0  0  0  0  0  0  0  0
   10.0826   45.7379  129.2490 C   0  0  0  0  0  0  0  0  0  0  0  0
    9.3975   46.5046  130.2032 C   0  0  0  0  0  0  0  0  0  0  0  0
   13.5838   44.1982  130.2806 H   0  0  0  0  0  0  0  0  0  0  0  0
   10.0112   48.8401  132.6388 C   0  0  0  0  0  0  0  0  0  0  0  0
    9.3199   47.4967  132.4650 C   0  0  0  0  0  0  0  0  0  0  0  0
 38 39  1  0  0  0
 39 29  1  0  0  0
 29 30  2  0  0  0
 30 31  1  0  0  0
 31 32  1  0  0  0
 31 33  2  0  0  0
 33 34  1  0  0  0
 33 35  1  0  0  0
 35 36  2  0  0  0
 36  1  1  0  0  0
  1  2  2  0  0  0
  2  3  1  0  0  0
  3  4  2  0  0  0
  4  5  1  0  0  0
  5  6  2  0  0  0
  6  7  1  0  0  0
  7  8  1  0  0  0
  8  9  2  0  0  0
  5 11  1  0  0  0
 11 12  2  0  0  0
 12 13  1  0  0  0
 13 14  1  0  0  0
 14 15  1  0  0  0
 15 16  1  0  0  0
 16 17  1  0  0  0
 17 18  1  0  0  0
 18 19  1  0  0  0
 15 20  1  0  0  0
 20 21  2  0  0  0
 20 23  1  0  0  0
 23 24  2  0  0  0
 24 25  1  0  0  0
 25 26  2  0  0  0
 26 27  1  0  0  0
 27 28  2  0  0  0
 36 29  1  0  0  0
  9  1  1  0  0  0
 19 11  1  0  0  0
 28 23  1  0  0  0
  8  4  1  0  0  0
 18 13  2  0  0  0
 32 37  1  0  0  0
  7 10  1  0  0  0
 19 22  1  0  0  0
M  END
> <minimizedAffinity>
18.56567

> <CNNscore>
0.1987916082

> <CNNaffinity>
7.0116858482

> <CNN_VS>
1.3938642740

> <CNNaffinity_variance>
0.2314350605

$$$$
[H]N=C(N([H])[H])N([H])C([H])([H])C([H])([H])C([H])([H])[C@@]([H])(C(=O)N([H])[C@]([H])(C(=O)c1nc([H])c([H])s1)C([H])([H])C([H])([H])C([H])([H])N=C(N([H])[H])N([H])[H])N([H])C(=O)[C@@]1([H])N(C(=O)[C@]([H])(N([H])C(=O)OC([H])([H])c2c([H])c([H])c([H])c([H])c2[H])C([H])([H])c2c([H])c([H])c([H])c([H])c2[H])C([H])([H])C([H])([H])C1([H])[H]


 66 69  0  0  0  0  0  0  0  0999 V2000
    6.3395   47.3846  128.5025 C   0  0  0  0  0  0  0  0  0  0  0  0
    6.6421   48.7255  129.0162 C   0  0  0  0  0  0  0  0  0  0  0  0
    6.1885   49.0883  130.1436 O   0  0  0  0  0  0  0  0  0  0  0  0
    7.4310   49.6347  128.2904 N   0  0  0  0  0  0  0  0  0  0  0  0
    7.8656   49.4526  127.3644 H   0  0  0  0  0  0  0  0  0  0  0  0
    7.7058   50.9927  128.8390 C   0  0  0  0  0  0  0  0  0  0  0  0
    7.6015   50.9032  130.2747 C   0  0  0  0  0  0  0  0  0  0  0  0
    6.5388   51.2725  130.8524 O   0  0  0  0  0  0  0  0  0  0  0  0
    8.6740   50.3923  131.1212 C   0  0  0  0  0  0  0  0  0  0  0  0
    8.9287   50.5286  132.4109 N   0  0  0  0  0  0  0  0  0  0  0  0
    9.9577   49.9699  132.9460 C   0  0  0  0  0  0  0  0  0  0  0  0
   10.7836   49.2273  132.1351 C   0  0  0  0  0  0  0  0  0  0  0  0
   10.0009   49.3908  130.6232 S   0  0  0  0  0  0  0  0  0  0  0  0
    6.6679   51.8430  128.1334 C   0  0  0  0  0  0  0  0  0  0  0  0
    7.0273   53.2537  127.8781 C   0  0  0  0  0  0  0  0  0  0  0  0
    7.3122   53.3915  126.3856 C   0  0  0  0  0  0  0  0  0  0  0  0
    7.9977   54.5871  126.0260 N   0  0  0  0  0  0  0  0  0  0  0  0
    8.2193   54.9425  124.8251 C   0  0  0  0  0  0  0  0  0  0  0  0
    7.7517   54.0889  123.7733 N   0  0  0  0  0  0  0  0  0  0  0  0
    8.9094   56.1610  124.4938 N   0  0  0  0  0  0  0  0  0  0  0  0
    6.9296   54.3899  123.2078 H   0  0  0  0  0  0  0  0  0  0  0  0
    8.2747   53.1986  123.6331 H   0  0  0  0  0  0  0  0  0  0  0  0
    8.4387   56.8676  123.8840 H   0  0  0  0  0  0  0  0  0  0  0  0
    9.8676   56.3899  124.8294 H   0  0  0  0  0  0  0  0  0  0  0  0
    7.0457   46.3489  129.2518 N   0  0  0  0  0  0  0  0  0  0  0  0
    8.4426   46.2527  129.1366 C   0  0  0  0  0  0  0  0  0  0  0  0
    9.0398   47.0472  128.3851 O   0  0  0  0  0  0  0  0  0  0  0  0
    6.4969   45.7164  129.8459 H   0  0  0  0  0  0  0  0  0  0  0  0
    9.1724   45.2351  129.8898 C   0  0  0  0  0  0  0  0  0  0  0  0
   10.6210   45.1279  129.3045 C   0  0  0  0  0  0  0  0  0  0  0  0
   10.4079   44.2758  128.0696 C   0  0  0  0  0  0  0  0  0  0  0  0
    9.1235   43.5354  128.3058 C   0  0  0  0  0  0  0  0  0  0  0  0
    8.7689   43.8732  129.6692 N   0  0  0  0  0  0  0  0  0  0  0  0
    8.1809   42.9343  130.5468 C   0  0  0  0  0  0  0  0  0  0  0  0
    7.8880   41.7955  130.1301 O   0  0  0  0  0  0  0  0  0  0  0  0
    7.9140   43.2695  131.9552 C   0  0  0  0  0  0  0  0  0  0  0  0
    8.2290   44.6966  132.1924 N   0  0  0  0  0  0  0  0  0  0  0  0
    7.8235   45.3299  133.4108 C   0  0  0  0  0  0  0  0  0  0  0  0
    7.1893   44.7111  134.3000 O   0  0  0  0  0  0  0  0  0  0  0  0
    8.7380   45.2654  131.5021 H   0  0  0  0  0  0  0  0  0  0  0  0
    8.1249   46.6588  133.6377 O   0  0  0  0  0  0  0  0  0  0  0  0
    9.1782   47.0653  134.4392 C   0  0  0  0  0  0  0  0  0  0  0  0
   10.5323   46.7705  133.9673 C   0  0  0  0  0  0  0  0  0  0  0  0
   10.6679   46.3834  132.6389 C   0  0  0  0  0  0  0  0  0  0  0  0
   11.8918   46.0896  132.0812 C   0  0  0  0  0  0  0  0  0  0  0  0
   13.0396   46.1743  132.8468 C   0  0  0  0  0  0  0  0  0  0  0  0
   12.9197   46.5558  134.1638 C   0  0  0  0  0  0  0  0  0  0  0  0
   11.6763   46.8522  134.7217 C   0  0  0  0  0  0  0  0  0  0  0  0
    8.6104   42.4421  132.9827 C   0  0  0  0  0  0  0  0  0  0  0  0
   10.0385   42.6860  133.1588 C   0  0  0  0  0  0  0  0  0  0  0  0
   10.9036   42.4660  132.1128 C   0  0  0  0  0  0  0  0  0  0  0  0
   12.2613   42.6922  132.1844 C   0  0  0  0  0  0  0  0  0  0  0  0
   12.7632   43.1618  133.3680 C   0  0  0  0  0  0  0  0  0  0  0  0
   11.9536   43.3999  134.4445 C   0  0  0  0  0  0  0  0  0  0  0  0
   10.5797   43.1542  134.3228 C   0  0  0  0  0  0  0  0  0  0  0  0
    4.8265   47.1118  128.5974 C   0  0  0  0  0  0  0  0  0  0  0  0
    4.4890   46.4384  129.9070 C   0  0  0  0  0  0  0  0  0  0  0  0
    3.0435   46.7053  130.2410 C   0  0  0  0  0  0  0  0  0  0  0  0
    2.2297   45.5863  129.8733 N   0  0  0  0  0  0  0  0  0  0  0  0
    2.5966   44.6206  129.9780 H   0  0  0  0  0  0  0  0  0  0  0  0
    0.3075   44.8059  128.5211 N   0  0  0  0  0  0  0  0  0  0  0  0
    0.8967   45.7679  129.3604 C   0  0  0  0  0  0  0  0  0  0  0  0
    0.2405   46.8156  129.6676 N   0  0  0  0  0  0  0  0  0  0  0  0
    0.7771   43.8674  128.4292 H   0  0  0  0  0  0  0  0  0  0  0  0
   -0.5488   44.9380  127.9820 H   0  0  0  0  0  0  0  0  0  0  0  0
    0.6114   47.5728  130.2849 H   0  0  0  0  0  0  0  0  0  0  0  0
 61 62  1  0  0  0
 62 63  2  0  0  0
 62 59  1  0  0  0
 59 58  1  0  0  0
 58 57  1  0  0  0
 57 56  1  0  0  0
 56  1  1  0  0  0
  1 25  1  0  0  0
 25 26  1  0  0  0
 26 27  2  0  0  0
 26 29  1  0  0  0
 29 30  1  0  0  0
 30 31  1  0  0  0
 31 32  1  0  0  0
 32 33  1  0  0  0
 33 34  1  0  0  0
 34 35  2  0  0  0
 34 36  1  0  0  0
 36 49  1  0  0  0
 49 50  1  0  0  0
 50 51  2  0  0  0
 51 52  1  0  0  0
 52 53  2  0  0  0
 53 54  1  0  0  0
 54 55  2  0  0  0
 36 37  1  0  0  0
 37 38  1  0  0  0
 38 39  2  0  0  0
 38 41  1  0  0  0
 41 42  1  0  0  0
 42 43  1  0  0  0
 43 44  2  0  0  0
 44 45  1  0  0  0
 45 46  2  0  0  0
 46 47  1  0  0  0
 47 48  2  0  0  0
  1  2  1  0  0  0
  2  3  2  0  0  0
  2  4  1  0  0  0
  4  6  1  0  0  0
  6 14  1  0  0  0
 14 15  1  0  0  0
 15 16  1  0  0  0
 16 17  1  0  0  0
 17 18  2  0  0  0
 18 19  1  0  0  0
 18 20  1  0  0  0
  6  7  1  0  0  0
  7  8  2  0  0  0
  7  9  1  0  0  0
  9 10  2  0  0  0
 10 11  1  0  0  0
 11 12  2  0  0  0
 12 13  1  0  0  0
 33 29  1  0  0  0
 55 50  1  0  0  0
 48 43  1  0  0  0
 13  9  1  0  0  0
 61 64  1  0  0  0
 61 65  1  0  0  0
 63 66  1  0  0  0
 59 60  1  0  0  0
 25 28  1  0  0  0
 37 40  1  0  0  0
  4  5  1  0  0  0
 19 21  1  0  0  0
 19 22  1  0  0  0
 20 23  1  0  0  0
 20 24  1  0  0  0
M  END
> <minimizedAffinity>
5.76604

> <CNNscore>
0.5128118992

> <CNNaffinity>
8.6210727692

> <CNN_VS>
4.4209885597

> <CNNaffinity_variance>
0.4106634259

$$$$
[H]N=C(N([H])[H])N([H])C([H])([H])C([H])([H])C([H])([H])[C@@]([H])(C(=O)N([H])[C@]([H])(C(=O)c1nc([H])c([H])s1)C([H])([H])C([H])([H])C([H])([H])N=C(N([H])[H])N([H])[H])N([H])C(=O)[C@@]1([H])N(C(=O)[C@]([H])(N([H])C(=O)OC([H])([H])c2c([H])c([H])c([H])c([H])c2[H])C([H])([H])c2c([H])c([H])c([H])c([H])c2[H])C([H])([H])C([H])([H])C1([H])[H]


 66 69  0  0  0  0  0  0  0  0999 V2000
    6.9839   50.3906  129.1824 C   0  0  0  0  0  0  0  0  0  0  0  0
    7.0475   51.1534  127.9303 C   0  0  0  0  0  0  0  0  0  0  0  0
    7.4451   50.5902  126.8659 O   0  0  0  0  0  0  0  0  0  0  0  0
    6.6753   52.5075  127.8699 N   0  0  0  0  0  0  0  0  0  0  0  0
    6.3260   53.0744  128.6675 H   0  0  0  0  0  0  0  0  0  0  0  0
    6.7660   53.2529  126.5826 C   0  0  0  0  0  0  0  0  0  0  0  0
    7.8868   54.1544  126.6884 C   0  0  0  0  0  0  0  0  0  0  0  0
    8.3368   54.4675  127.8281 O   0  0  0  0  0  0  0  0  0  0  0  0
    8.5536   54.7362  125.5287 C   0  0  0  0  0  0  0  0  0  0  0  0
    9.2393   55.8543  125.3671 N   0  0  0  0  0  0  0  0  0  0  0  0
    9.7469   56.1612  124.2245 C   0  0  0  0  0  0  0  0  0  0  0  0
    9.5541   55.2905  123.1777 C   0  0  0  0  0  0  0  0  0  0  0  0
    8.6326   54.0624  123.9313 S   0  0  0  0  0  0  0  0  0  0  0  0
    5.3922   53.8851  126.4772 C   0  0  0  0  0  0  0  0  0  0  0  0
    5.3451   55.3102  126.0881 C   0  0  0  0  0  0  0  0  0  0  0  0
    4.5557   55.4043  124.7860 C   0  0  0  0  0  0  0  0  0  0  0  0
    5.2833   55.0076  123.6275 N   0  0  0  0  0  0  0  0  0  0  0  0
    4.9031   54.0912  122.8317 C   0  0  0  0  0  0  0  0  0  0  0  0
    3.6704   53.4191  123.1189 N   0  0  0  0  0  0  0  0  0  0  0  0
    5.6578   53.7179  121.6648 N   0  0  0  0  0  0  0  0  0  0  0  0
    2.8368   53.6204  122.5267 H   0  0  0  0  0  0  0  0  0  0  0  0
    3.6825   52.7532  123.9203 H   0  0  0  0  0  0  0  0  0  0  0  0
    5.2041   53.7637  120.7242 H   0  0  0  0  0  0  0  0  0  0  0  0
    6.6478   53.3986  121.6969 H   0  0  0  0  0  0  0  0  0  0  0  0
    8.2234   49.6591  129.4307 N   0  0  0  0  0  0  0  0  0  0  0  0
    8.2103   48.5721  130.3205 C   0  0  0  0  0  0  0  0  0  0  0  0
    7.1413   48.2706  130.8854 O   0  0  0  0  0  0  0  0  0  0  0  0
    9.0750   49.9626  128.9438 H   0  0  0  0  0  0  0  0  0  0  0  0
    9.4347   47.8150  130.5717 C   0  0  0  0  0  0  0  0  0  0  0  0
   10.2913   48.5924  131.6274 C   0  0  0  0  0  0  0  0  0  0  0  0
   10.9492   49.6648  130.7826 C   0  0  0  0  0  0  0  0  0  0  0  0
   10.9140   49.1479  129.3736 C   0  0  0  0  0  0  0  0  0  0  0  0
   10.3998   47.8001  129.5066 N   0  0  0  0  0  0  0  0  0  0  0  0
   10.8736   46.7337  128.7094 C   0  0  0  0  0  0  0  0  0  0  0  0
   11.7107   46.9556  127.8115 O   0  0  0  0  0  0  0  0  0  0  0  0
   10.4056   45.3544  128.9237 C   0  0  0  0  0  0  0  0  0  0  0  0
    9.3752   45.3413  129.9869 N   0  0  0  0  0  0  0  0  0  0  0  0
    8.5371   44.1938  130.1622 C   0  0  0  0  0  0  0  0  0  0  0  0
    8.6380   43.1810  129.4273 O   0  0  0  0  0  0  0  0  0  0  0  0
    9.2325   46.1409  130.6189 H   0  0  0  0  0  0  0  0  0  0  0  0
    7.5817   44.1761  131.1598 O   0  0  0  0  0  0  0  0  0  0  0  0
    7.3135   45.2705  131.9644 C   0  0  0  0  0  0  0  0  0  0  0  0
    8.1875   45.4836  133.1194 C   0  0  0  0  0  0  0  0  0  0  0  0
    8.0989   46.7144  133.7598 C   0  0  0  0  0  0  0  0  0  0  0  0
    8.8640   47.0257  134.8611 C   0  0  0  0  0  0  0  0  0  0  0  0
    9.7585   46.1007  135.3663 C   0  0  0  0  0  0  0  0  0  0  0  0
    9.8569   44.8784  134.7415 C   0  0  0  0  0  0  0  0  0  0  0  0
    9.0780   44.5701  133.6264 C   0  0  0  0  0  0  0  0  0  0  0  0
   11.4481   44.3374  129.2463 C   0  0  0  0  0  0  0  0  0  0  0  0
   11.8266   44.2134  130.6504 C   0  0  0  0  0  0  0  0  0  0  0  0
   11.7703   42.9859  131.2676 C   0  0  0  0  0  0  0  0  0  0  0  0
   12.1310   42.7744  132.5809 C   0  0  0  0  0  0  0  0  0  0  0  0
   12.5677   43.8546  133.2991 C   0  0  0  0  0  0  0  0  0  0  0  0
   12.6456   45.1011  132.7412 C   0  0  0  0  0  0  0  0  0  0  0  0
   12.2672   45.2657  131.4023 C   0  0  0  0  0  0  0  0  0  0  0  0
    6.7307   51.3412  130.3676 C   0  0  0  0  0  0  0  0  0  0  0  0
    5.2820   51.2866  130.7926 C   0  0  0  0  0  0  0  0  0  0  0  0
    4.7997   49.8603  130.7196 C   0  0  0  0  0  0  0  0  0  0  0  0
    4.7562   49.4155  129.3595 N   0  0  0  0  0  0  0  0  0  0  0  0
    4.4613   50.0690  128.6085 H   0  0  0  0  0  0  0  0  0  0  0  0
    4.6669   46.9724  129.7552 N   0  0  0  0  0  0  0  0  0  0  0  0
    5.1203   48.0693  129.0013 C   0  0  0  0  0  0  0  0  0  0  0  0
    5.8662   47.8664  127.9887 N   0  0  0  0  0  0  0  0  0  0  0  0
    3.9061   47.1343  130.4658 H   0  0  0  0  0  0  0  0  0  0  0  0
    5.0159   46.0168  129.6757 H   0  0  0  0  0  0  0  0  0  0  0  0
    6.2411   48.6298  127.3816 H   0  0  0  0  0  0  0  0  0  0  0  0
 61 62  1  0  0  0
 62 63  2  0  0  0
 62 59  1  0  0  0
 59 58  1  0  0  0
 58 57  1  0  0  0
 57 56  1  0  0  0
 56  1  1  0  0  0
  1 25  1  0  0  0
 25 26  1  0  0  0
 26 27  2  0  0  0
 26 29  1  0  0  0
 29 30  1  0  0  0
 30 31  1  0  0  0
 31 32  1  0  0  0
 32 33  1  0  0  0
 33 34  1  0  0  0
 34 35  2  0  0  0
 34 36  1  0  0  0
 36 49  1  0  0  0
 49 50  1  0  0  0
 50 51  2  0  0  0
 51 52  1  0  0  0
 52 53  2  0  0  0
 53 54  1  0  0  0
 54 55  2  0  0  0
 36 37  1  0  0  0
 37 38  1  0  0  0
 38 39  2  0  0  0
 38 41  1  0  0  0
 41 42  1  0  0  0
 42 43  1  0  0  0
 43 44  2  0  0  0
 44 45  1  0  0  0
 45 46  2  0  0  0
 46 47  1  0  0  0
 47 48  2  0  0  0
  1  2  1  0  0  0
  2  3  2  0  0  0
  2  4  1  0  0  0
  4  6  1  0  0  0
  6 14  1  0  0  0
 14 15  1  0  0  0
 15 16  1  0  0  0
 16 17  1  0  0  0
 17 18  2  0  0  0
 18 19  1  0  0  0
 18 20  1  0  0  0
  6  7  1  0  0  0
  7  8  2  0  0  0
  7  9  1  0  0  0
  9 10  2  0  0  0
 10 11  1  0  0  0
 11 12  2  0  0  0
 12 13  1  0  0  0
 33 29  1  0  0  0
 55 50  1  0  0  0
 48 43  1  0  0  0
 13  9  1  0  0  0
 61 64  1  0  0  0
 61 65  1  0  0  0
 63 66  1  0  0  0
 59 60  1  0  0  0
 25 28  1  0  0  0
 37 40  1  0  0  0
  4  5  1  0  0  0
 19 21  1  0  0  0
 19 22  1  0  0  0
 20 23  1  0  0  0
 20 24  1  0  0  0
M  END
> <minimizedAffinity>
7.40115

> <CNNscore>
0.4978877902

> <CNNaffinity>
8.2207288742

> <CNN_VS>
4.0930004120

> <CNNaffinity_variance>
0.3011925817

$$$$
[H]N=C(N([H])[H])N([H])C([H])([H])C([H])([H])C([H])([H])[C@@]([H])(C(=O)N([H])[C@]([H])(C(=O)c1nc([H])c([H])s1)C([H])([H])C([H])([H])C([H])([H])N=C(N([H])[H])N([H])[H])N([H])C(=O)[C@@]1([H])N(C(=O)[C@]([H])(N([H])C(=O)OC([H])([H])c2c([H])c([H])c([H])c([H])c2[H])C([H])([H])c2c([H])c([H])c([H])c([H])c2[H])C([H])([H])C([H])([H])C1([H])[H]


 66 69  0  0  0  0  0  0  0  0999 V2000
    5.8378   46.5644  129.1929 C   0  0  0  0  0  0  0  0  0  0  0  0
    5.9613   47.9232  128.6526 C   0  0  0  0  0  0  0  0  0  0  0  0
    6.5304   48.1102  127.5348 O   0  0  0  0  0  0  0  0  0  0  0  0
    5.4611   49.0413  129.3421 N   0  0  0  0  0  0  0  0  0  0  0  0
    4.9690   49.0167  130.2569 H   0  0  0  0  0  0  0  0  0  0  0  0
    5.6171   50.4075  128.7676 C   0  0  0  0  0  0  0  0  0  0  0  0
    6.7001   51.0471  129.4733 C   0  0  0  0  0  0  0  0  0  0  0  0
    6.6259   52.2772  129.7577 O   0  0  0  0  0  0  0  0  0  0  0  0
    7.9040   50.3397  129.8954 C   0  0  0  0  0  0  0  0  0  0  0  0
    8.5811   49.3403  129.3575 N   0  0  0  0  0  0  0  0  0  0  0  0
    9.6388   48.8750  129.9251 C   0  0  0  0  0  0  0  0  0  0  0  0
   10.0426   49.4494  131.1075 C   0  0  0  0  0  0  0  0  0  0  0  0
    8.8409   50.6471  131.3235 S   0  0  0  0  0  0  0  0  0  0  0  0
    4.2352   50.9999  128.9614 C   0  0  0  0  0  0  0  0  0  0  0  0
    3.1372   50.3940  128.1793 C   0  0  0  0  0  0  0  0  0  0  0  0
    2.7224   51.4033  127.1130 C   0  0  0  0  0  0  0  0  0  0  0  0
    1.5133   52.0989  127.4008 N   0  0  0  0  0  0  0  0  0  0  0  0
    1.2446   53.2627  126.9638 C   0  0  0  0  0  0  0  0  0  0  0  0
    2.2163   53.9110  126.1337 N   0  0  0  0  0  0  0  0  0  0  0  0
    0.0100   53.9368  127.2670 N   0  0  0  0  0  0  0  0  0  0  0  0
    2.0265   54.0027  125.1131 H   0  0  0  0  0  0  0  0  0  0  0  0
    3.0735   54.2608  126.6119 H   0  0  0  0  0  0  0  0  0  0  0  0
   -0.6055   54.2564  126.4849 H   0  0  0  0  0  0  0  0  0  0  0  0
   -0.3176   54.1309  128.2356 H   0  0  0  0  0  0  0  0  0  0  0  0
    7.0718   46.1285  129.8410 N   0  0  0  0  0  0  0  0  0  0  0  0
    7.9853   45.3443  129.1170 C   0  0  0  0  0  0  0  0  0  0  0  0
    7.7094   45.0299  127.9432 O   0  0  0  0  0  0  0  0  0  0  0  0
    7.2376   46.4101  130.8145 H   0  0  0  0  0  0  0  0  0  0  0  0
    9.2343   44.9105  129.7393 C   0  0  0  0  0  0  0  0  0  0  0  0
   10.3815   45.8678  129.2700 C   0  0  0  0  0  0  0  0  0  0  0  0
   10.7068   45.3298  127.8911 C   0  0  0  0  0  0  0  0  0  0  0  0
   10.2135   43.9120  127.8834 C   0  0  0  0  0  0  0  0  0  0  0  0
    9.7916   43.6793  129.2496 N   0  0  0  0  0  0  0  0  0  0  0  0
    9.9893   42.4379  129.8954 C   0  0  0  0  0  0  0  0  0  0  0  0
   10.4780   41.4807  129.2620 O   0  0  0  0  0  0  0  0  0  0  0  0
    9.6384   42.2508  131.3129 C   0  0  0  0  0  0  0  0  0  0  0  0
    8.8352   43.4036  131.7799 N   0  0  0  0  0  0  0  0  0  0  0  0
    8.1138   43.3248  133.0142 C   0  0  0  0  0  0  0  0  0  0  0  0
    8.1288   42.2906  133.7256 O   0  0  0  0  0  0  0  0  0  0  0  0
    8.7717   44.2787  131.2419 H   0  0  0  0  0  0  0  0  0  0  0  0
    7.3717   44.4029  133.4561 O   0  0  0  0  0  0  0  0  0  0  0  0
    7.7328   45.1660  134.5534 C   0  0  0  0  0  0  0  0  0  0  0  0
    8.7898   46.1603  134.3600 C   0  0  0  0  0  0  0  0  0  0  0  0
    9.1103   46.4944  133.0491 C   0  0  0  0  0  0  0  0  0  0  0  0
   10.0803   47.4224  132.7443 C   0  0  0  0  0  0  0  0  0  0  0  0
   10.7738   48.0572  133.7577 C   0  0  0  0  0  0  0  0  0  0  0  0
   10.4671   47.7353  135.0602 C   0  0  0  0  0  0  0  0  0  0  0  0
    9.4827   46.7944  135.3612 C   0  0  0  0  0  0  0  0  0  0  0  0
   10.7712   42.0342  132.2589 C   0  0  0  0  0  0  0  0  0  0  0  0
   11.5161   43.2207  132.6679 C   0  0  0  0  0  0  0  0  0  0  0  0
   12.1442   43.9939  131.7199 C   0  0  0  0  0  0  0  0  0  0  0  0
   12.8481   45.1415  132.0148 C   0  0  0  0  0  0  0  0  0  0  0  0
   12.9179   45.5214  133.3279 C   0  0  0  0  0  0  0  0  0  0  0  0
   12.3143   44.7939  134.3166 C   0  0  0  0  0  0  0  0  0  0  0  0
   11.6104   43.6342  133.9667 C   0  0  0  0  0  0  0  0  0  0  0  0
    4.6963   46.5085  130.2256 C   0  0  0  0  0  0  0  0  0  0  0  0
    3.3568   46.4180  129.5329 C   0  0  0  0  0  0  0  0  0  0  0  0
    2.2988   46.0685  130.5482 C   0  0  0  0  0  0  0  0  0  0  0  0
    1.3628   45.1368  129.9955 N   0  0  0  0  0  0  0  0  0  0  0  0
    1.3465   44.1549  130.3329 H   0  0  0  0  0  0  0  0  0  0  0  0
    0.1598   44.6969  127.8761 N   0  0  0  0  0  0  0  0  0  0  0  0
    0.4281   45.5328  128.9745 C   0  0  0  0  0  0  0  0  0  0  0  0
   -0.1636   46.6574  129.0636 N   0  0  0  0  0  0  0  0  0  0  0  0
    0.5036   43.7017  127.9093 H   0  0  0  0  0  0  0  0  0  0  0  0
   -0.3459   44.9731  127.0339 H   0  0  0  0  0  0  0  0  0  0  0  0
   -0.0156   47.3306  129.8490 H   0  0  0  0  0  0  0  0  0  0  0  0
 61 62  1  0  0  0
 62 63  2  0  0  0
 62 59  1  0  0  0
 59 58  1  0  0  0
 58 57  1  0  0  0
 57 56  1  0  0  0
 56  1  1  0  0  0
  1 25  1  0  0  0
 25 26  1  0  0  0
 26 27  2  0  0  0
 26 29  1  0  0  0
 29 30  1  0  0  0
 30 31  1  0  0  0
 31 32  1  0  0  0
 32 33  1  0  0  0
 33 34  1  0  0  0
 34 35  2  0  0  0
 34 36  1  0  0  0
 36 49  1  0  0  0
 49 50  1  0  0  0
 50 51  2  0  0  0
 51 52  1  0  0  0
 52 53  2  0  0  0
 53 54  1  0  0  0
 54 55  2  0  0  0
 36 37  1  0  0  0
 37 38  1  0  0  0
 38 39  2  0  0  0
 38 41  1  0  0  0
 41 42  1  0  0  0
 42 43  1  0  0  0
 43 44  2  0  0  0
 44 45  1  0  0  0
 45 46  2  0  0  0
 46 47  1  0  0  0
 47 48  2  0  0  0
  1  2  1  0  0  0
  2  3  2  0  0  0
  2  4  1  0  0  0
  4  6  1  0  0  0
  6 14  1  0  0  0
 14 15  1  0  0  0
 15 16  1  0  0  0
 16 17  1  0  0  0
 17 18  2  0  0  0
 18 19  1  0  0  0
 18 20  1  0  0  0
  6  7  1  0  0  0
  7  8  2  0  0  0
  7  9  1  0  0  0
  9 10  2  0  0  0
 10 11  1  0  0  0
 11 12  2  0  0  0
 12 13  1  0  0  0
 33 29  1  0  0  0
 55 50  1  0  0  0
 48 43  1  0  0  0
 13  9  1  0  0  0
 61 64  1  0  0  0
 61 65  1  0  0  0
 63 66  1  0  0  0
 59 60  1  0  0  0
 25 28  1  0  0  0
 37 40  1  0  0  0
  4  5  1  0  0  0
 19 21  1  0  0  0
 19 22  1  0  0  0
 20 23  1  0  0  0
 20 24  1  0  0  0
M  END
> <minimizedAffinity>
9.35907

> <CNNscore>
0.4893205166

> <CNNaffinity>
8.4957294464

> <CNN_VS>
4.1571345329

> <CNNaffinity_variance>
0.8872658014

$$$$
[H]N=C(N([H])[H])N([H])C([H])([H])C([H])([H])C([H])([H])[C@@]([H])(C(=O)N([H])[C@]([H])(C(=O)c1nc([H])c([H])s1)C([H])([H])C([H])([H])C([H])([H])N=C(N([H])[H])N([H])[H])N([H])C(=O)[C@@]1([H])N(C(=O)[C@]([H])(N([H])C(=O)OC([H])([H])c2c([H])c([H])c([H])c([H])c2[H])C([H])([H])c2c([H])c([H])c([H])c([H])c2[H])C([H])([H])C([H])([H])C1([H])[H]


 66 69  0  0  0  0  0  0  0  0999 V2000
    7.6330   45.4168  131.1229 C   0  0  0  0  0  0  0  0  0  0  0  0
    8.1624   45.1930  129.7727 C   0  0  0  0  0  0  0  0  0  0  0  0
    7.5460   44.4285  128.9702 O   0  0  0  0  0  0  0  0  0  0  0  0
    9.3468   45.8081  129.3316 N   0  0  0  0  0  0  0  0  0  0  0  0
    9.9335   46.4593  129.8895 H   0  0  0  0  0  0  0  0  0  0  0  0
    9.8604   45.5461  127.9574 C   0  0  0  0  0  0  0  0  0  0  0  0
   10.7493   44.4134  128.0417 C   0  0  0  0  0  0  0  0  0  0  0  0
   10.4541   43.3366  127.4478 O   0  0  0  0  0  0  0  0  0  0  0  0
   12.0043   44.4390  128.7850 C   0  0  0  0  0  0  0  0  0  0  0  0
   13.2583   44.2433  128.4168 N   0  0  0  0  0  0  0  0  0  0  0  0
   14.2195   44.3219  129.2697 C   0  0  0  0  0  0  0  0  0  0  0  0
   13.9016   44.6156  130.5750 C   0  0  0  0  0  0  0  0  0  0  0  0
   12.2002   44.7606  130.4791 S   0  0  0  0  0  0  0  0  0  0  0  0
   10.4868   46.8760  127.5869 C   0  0  0  0  0  0  0  0  0  0  0  0
   10.9489   47.7264  128.7038 C   0  0  0  0  0  0  0  0  0  0  0  0
    9.7103   48.2779  129.4034 C   0  0  0  0  0  0  0  0  0  0  0  0
    9.9470   49.4456  130.1839 N   0  0  0  0  0  0  0  0  0  0  0  0
    9.3172   49.7220  131.2538 C   0  0  0  0  0  0  0  0  0  0  0  0
    8.3106   48.8041  131.6985 N   0  0  0  0  0  0  0  0  0  0  0  0
    9.5845   50.9074  132.0244 N   0  0  0  0  0  0  0  0  0  0  0  0
    8.5045   48.2080  132.5311 H   0  0  0  0  0  0  0  0  0  0  0  0
    7.4243   48.7885  131.1507 H   0  0  0  0  0  0  0  0  0  0  0  0
    9.8559   50.8154  133.0297 H   0  0  0  0  0  0  0  0  0  0  0  0
    9.5242   51.8717  131.6376 H   0  0  0  0  0  0  0  0  0  0  0  0
    8.7017   45.4831  132.1161 N   0  0  0  0  0  0  0  0  0  0  0  0
    8.3805   45.3502  133.4773 C   0  0  0  0  0  0  0  0  0  0  0  0
    7.1875   45.1931  133.8008 O   0  0  0  0  0  0  0  0  0  0  0  0
    9.6643   45.6257  131.7884 H   0  0  0  0  0  0  0  0  0  0  0  0
    9.4352   45.3965  134.4878 C   0  0  0  0  0  0  0  0  0  0  0  0
    9.0856   46.5222  135.5189 C   0  0  0  0  0  0  0  0  0  0  0  0
    9.5230   47.7760  134.7887 C   0  0  0  0  0  0  0  0  0  0  0  0
   10.5199   47.3198  133.7632 C   0  0  0  0  0  0  0  0  0  0  0  0
   10.7049   45.9128  134.0546 N   0  0  0  0  0  0  0  0  0  0  0  0
   11.9648   45.2823  133.9435 C   0  0  0  0  0  0  0  0  0  0  0  0
   12.9444   45.9259  133.5164 O   0  0  0  0  0  0  0  0  0  0  0  0
   12.1507   43.8750  134.3336 C   0  0  0  0  0  0  0  0  0  0  0  0
   13.4695   43.7127  134.9868 N   0  0  0  0  0  0  0  0  0  0  0  0
   13.5639   43.0887  136.2719 C   0  0  0  0  0  0  0  0  0  0  0  0
   12.5488   42.6740  136.8833 O   0  0  0  0  0  0  0  0  0  0  0  0
   14.3409   44.0378  134.5459 H   0  0  0  0  0  0  0  0  0  0  0  0
   14.7945   42.9279  136.8784 O   0  0  0  0  0  0  0  0  0  0  0  0
   14.9681   42.2115  138.0504 C   0  0  0  0  0  0  0  0  0  0  0  0
   16.2679   42.3186  138.7154 C   0  0  0  0  0  0  0  0  0  0  0  0
   16.2886   42.9216  139.9679 C   0  0  0  0  0  0  0  0  0  0  0  0
   17.4500   43.0702  140.6920 C   0  0  0  0  0  0  0  0  0  0  0  0
   18.6493   42.6135  140.1781 C   0  0  0  0  0  0  0  0  0  0  0  0
   18.6433   42.0151  138.9387 C   0  0  0  0  0  0  0  0  0  0  0  0
   17.4625   41.8677  138.2112 C   0  0  0  0  0  0  0  0  0  0  0  0
   12.0177   42.8580  133.2504 C   0  0  0  0  0  0  0  0  0  0  0  0
   10.6700   42.6134  132.7467 C   0  0  0  0  0  0  0  0  0  0  0  0
   10.4517   42.5282  131.3918 C   0  0  0  0  0  0  0  0  0  0  0  0
    9.2177   42.2768  130.8315 C   0  0  0  0  0  0  0  0  0  0  0  0
    8.1596   42.1044  131.6824 C   0  0  0  0  0  0  0  0  0  0  0  0
    8.3131   42.1779  133.0396 C   0  0  0  0  0  0  0  0  0  0  0  0
    9.5875   42.4360  133.5614 C   0  0  0  0  0  0  0  0  0  0  0  0
    6.8408   46.7370  131.1675 C   0  0  0  0  0  0  0  0  0  0  0  0
    5.8208   46.7826  130.0539 C   0  0  0  0  0  0  0  0  0  0  0  0
    6.2986   47.7328  128.9857 C   0  0  0  0  0  0  0  0  0  0  0  0
    5.5958   48.9771  129.0716 N   0  0  0  0  0  0  0  0  0  0  0  0
    4.5870   49.0216  128.8298 H   0  0  0  0  0  0  0  0  0  0  0  0
    7.2445   50.7858  128.6934 N   0  0  0  0  0  0  0  0  0  0  0  0
    6.2593   50.1827  129.4951 C   0  0  0  0  0  0  0  0  0  0  0  0
    5.9532   50.7111  130.6131 N   0  0  0  0  0  0  0  0  0  0  0  0
    7.3527   50.4538  127.6995 H   0  0  0  0  0  0  0  0  0  0  0  0
    7.8766   51.5285  128.9938 H   0  0  0  0  0  0  0  0  0  0  0  0
    5.2326   50.3212  131.2616 H   0  0  0  0  0  0  0  0  0  0  0  0
 61 62  1  0  0  0
 62 63  2  0  0  0
 62 59  1  0  0  0
 59 58  1  0  0  0
 58 57  1  0  0  0
 57 56  1  0  0  0
 56  1  1  0  0  0
  1 25  1  0  0  0
 25 26  1  0  0  0
 26 27  2  0  0  0
 26 29  1  0  0  0
 29 30  1  0  0  0
 30 31  1  0  0  0
 31 32  1  0  0  0
 32 33  1  0  0  0
 33 34  1  0  0  0
 34 35  2  0  0  0
 34 36  1  0  0  0
 36 49  1  0  0  0
 49 50  1  0  0  0
 50 51  2  0  0  0
 51 52  1  0  0  0
 52 53  2  0  0  0
 53 54  1  0  0  0
 54 55  2  0  0  0
 36 37  1  0  0  0
 37 38  1  0  0  0
 38 39  2  0  0  0
 38 41  1  0  0  0
 41 42  1  0  0  0
 42 43  1  0  0  0
 43 44  2  0  0  0
 44 45  1  0  0  0
 45 46  2  0  0  0
 46 47  1  0  0  0
 47 48  2  0  0  0
  1  2  1  0  0  0
  2  3  2  0  0  0
  2  4  1  0  0  0
  4  6  1  0  0  0
  6 14  1  0  0  0
 14 15  1  0  0  0
 15 16  1  0  0  0
 16 17  1  0  0  0
 17 18  2  0  0  0
 18 19  1  0  0  0
 18 20  1  0  0  0
  6  7  1  0  0  0
  7  8  2  0  0  0
  7  9  1  0  0  0
  9 10  2  0  0  0
 10 11  1  0  0  0
 11 12  2  0  0  0
 12 13  1  0  0  0
 33 29  1  0  0  0
 55 50  1  0  0  0
 48 43  1  0  0  0
 13  9  1  0  0  0
 61 64  1  0  0  0
 61 65  1  0  0  0
 63 66  1  0  0  0
 59 60  1  0  0  0
 25 28  1  0  0  0
 37 40  1  0  0  0
  4  5  1  0  0  0
 19 21  1  0  0  0
 19 22  1  0  0  0
 20 23  1  0  0  0
 20 24  1  0  0  0
M  END
> <minimizedAffinity>
9.31380

> <CNNscore>
0.4812619388

> <CNNaffinity>
8.6036739349

> <CNN_VS>
4.1406207085

> <CNNaffinity_variance>
0.5307869911

$$$$
[H]N=C(N([H])[H])N([H])C([H])([H])C([H])([H])C([H])([H])[C@@]([H])(C(=O)N([H])[C@]([H])(C(=O)c1nc([H])c([H])s1)C([H])([H])C([H])([H])C([H])([H])N=C(N([H])[H])N([H])[H])N([H])C(=O)[C@@]1([H])N(C(=O)[C@]([H])(N([H])C(=O)OC([H])([H])c2c([H])c([H])c([H])c([H])c2[H])C([H])([H])c2c([H])c([H])c([H])c([H])c2[H])C([H])([H])C([H])([H])C1([H])[H]


 66 69  0  0  0  0  0  0  0  0999 V2000
   10.4227   45.4650  129.4230 C   0  0  0  0  0  0  0  0  0  0  0  0
   11.3272   44.9724  130.4683 C   0  0  0  0  0  0  0  0  0  0  0  0
   12.4971   44.5893  130.1636 O   0  0  0  0  0  0  0  0  0  0  0  0
   10.9352   44.9115  131.8168 N   0  0  0  0  0  0  0  0  0  0  0  0
   10.0112   45.2040  132.1913 H   0  0  0  0  0  0  0  0  0  0  0  0
   11.8773   44.3928  132.8484 C   0  0  0  0  0  0  0  0  0  0  0  0
   11.1444   44.2955  134.0867 C   0  0  0  0  0  0  0  0  0  0  0  0
   11.5710   43.5477  135.0131 O   0  0  0  0  0  0  0  0  0  0  0  0
    9.9120   45.0328  134.3432 C   0  0  0  0  0  0  0  0  0  0  0  0
    8.6588   44.8207  133.9813 N   0  0  0  0  0  0  0  0  0  0  0  0
    7.7204   45.6267  134.3379 C   0  0  0  0  0  0  0  0  0  0  0  0
    8.0616   46.7146  135.1067 C   0  0  0  0  0  0  0  0  0  0  0  0
    9.7503   46.4946  135.2646 S   0  0  0  0  0  0  0  0  0  0  0  0
   13.0008   45.4096  132.8012 C   0  0  0  0  0  0  0  0  0  0  0  0
   12.7258   46.7314  133.4023 C   0  0  0  0  0  0  0  0  0  0  0  0
   13.6155   46.8691  134.6341 C   0  0  0  0  0  0  0  0  0  0  0  0
   13.2729   47.9563  135.4881 N   0  0  0  0  0  0  0  0  0  0  0  0
   14.0044   48.3621  136.4462 C   0  0  0  0  0  0  0  0  0  0  0  0
   15.2454   47.6845  136.6791 N   0  0  0  0  0  0  0  0  0  0  0  0
   13.6333   49.4688  137.2876 N   0  0  0  0  0  0  0  0  0  0  0  0
   16.1361   48.1631  136.4267 H   0  0  0  0  0  0  0  0  0  0  0  0
   15.1811   46.7324  137.0978 H   0  0  0  0  0  0  0  0  0  0  0  0
   14.2750   50.2901  137.3675 H   0  0  0  0  0  0  0  0  0  0  0  0
   12.7481   49.5058  137.8336 H   0  0  0  0  0  0  0  0  0  0  0  0
   10.4231   46.9238  129.3542 N   0  0  0  0  0  0  0  0  0  0  0  0
    9.6461   47.6526  130.2701 C   0  0  0  0  0  0  0  0  0  0  0  0
    8.9653   47.0314  131.1087 O   0  0  0  0  0  0  0  0  0  0  0  0
   10.9959   47.3782  128.6332 H   0  0  0  0  0  0  0  0  0  0  0  0
    9.6439   49.1134  130.2310 C   0  0  0  0  0  0  0  0  0  0  0  0
   10.7190   49.6387  131.2414 C   0  0  0  0  0  0  0  0  0  0  0  0
    9.9975   49.5235  132.5691 C   0  0  0  0  0  0  0  0  0  0  0  0
    8.5342   49.5084  132.2343 C   0  0  0  0  0  0  0  0  0  0  0  0
    8.4975   49.7606  130.8082 N   0  0  0  0  0  0  0  0  0  0  0  0
    7.4928   50.5559  130.2120 C   0  0  0  0  0  0  0  0  0  0  0  0
    6.5623   51.0054  130.9107 O   0  0  0  0  0  0  0  0  0  0  0  0
    7.5261   50.8769  128.7756 C   0  0  0  0  0  0  0  0  0  0  0  0
    6.8451   52.1706  128.5418 N   0  0  0  0  0  0  0  0  0  0  0  0
    7.2070   52.9815  127.4187 C   0  0  0  0  0  0  0  0  0  0  0  0
    8.1053   52.6348  126.6132 O   0  0  0  0  0  0  0  0  0  0  0  0
    6.1062   52.5196  129.1676 H   0  0  0  0  0  0  0  0  0  0  0  0
    6.5660   54.1843  127.1938 O   0  0  0  0  0  0  0  0  0  0  0  0
    7.0599   55.1512  126.3347 C   0  0  0  0  0  0  0  0  0  0  0  0
    7.0102   54.8623  124.9004 C   0  0  0  0  0  0  0  0  0  0  0  0
    8.2265   54.7402  124.2383 C   0  0  0  0  0  0  0  0  0  0  0  0
    8.3049   54.4612  122.8924 C   0  0  0  0  0  0  0  0  0  0  0  0
    7.1497   54.2930  122.1520 C   0  0  0  0  0  0  0  0  0  0  0  0
    5.9386   54.4120  122.7949 C   0  0  0  0  0  0  0  0  0  0  0  0
    5.8672   54.6943  124.1588 C   0  0  0  0  0  0  0  0  0  0  0  0
    6.9576   49.8554  127.8491 C   0  0  0  0  0  0  0  0  0  0  0  0
    6.3458   48.6829  128.4664 C   0  0  0  0  0  0  0  0  0  0  0  0
    7.0371   47.4950  128.5112 C   0  0  0  0  0  0  0  0  0  0  0  0
    6.5455   46.3471  129.0947 C   0  0  0  0  0  0  0  0  0  0  0  0
    5.2991   46.4067  129.6569 C   0  0  0  0  0  0  0  0  0  0  0  0
    4.5623   47.5591  129.6439 C   0  0  0  0  0  0  0  0  0  0  0  0
    5.1051   48.7000  129.0384 C   0  0  0  0  0  0  0  0  0  0  0  0
   10.8495   44.9101  128.0510 C   0  0  0  0  0  0  0  0  0  0  0  0
   10.2649   43.5349  127.8286 C   0  0  0  0  0  0  0  0  0  0  0  0
    8.9083   43.4638  128.4819 C   0  0  0  0  0  0  0  0  0  0  0  0
    8.9480   42.6043  129.6261 N   0  0  0  0  0  0  0  0  0  0  0  0
    9.2863   41.6274  129.5304 H   0  0  0  0  0  0  0  0  0  0  0  0
    8.8254   42.3306  132.0844 N   0  0  0  0  0  0  0  0  0  0  0  0
    8.5302   43.0675  130.9238 C   0  0  0  0  0  0  0  0  0  0  0  0
    7.8811   44.1590  131.0245 N   0  0  0  0  0  0  0  0  0  0  0  0
    9.5177   41.5398  132.0120 H   0  0  0  0  0  0  0  0  0  0  0  0
    8.4209   42.4948  133.0067 H   0  0  0  0  0  0  0  0  0  0  0  0
    7.6253   44.7597  130.2086 H   0  0  0  0  0  0  0  0  0  0  0  0
 61 62  1  0  0  0
 62 63  2  0  0  0
 62 59  1  0  0  0
 59 58  1  0  0  0
 58 57  1  0  0  0
 57 56  1  0  0  0
 56  1  1  0  0  0
  1 25  1  0  0  0
 25 26  1  0  0  0
 26 27  2  0  0  0
 26 29  1  0  0  0
 29 30  1  0  0  0
 30 31  1  0  0  0
 31 32  1  0  0  0
 32 33  1  0  0  0
 33 34  1  0  0  0
 34 35  2  0  0  0
 34 36  1  0  0  0
 36 49  1  0  0  0
 49 50  1  0  0  0
 50 51  2  0  0  0
 51 52  1  0  0  0
 52 53  2  0  0  0
 53 54  1  0  0  0
 54 55  2  0  0  0
 36 37  1  0  0  0
 37 38  1  0  0  0
 38 39  2  0  0  0
 38 41  1  0  0  0
 41 42  1  0  0  0
 42 43  1  0  0  0
 43 44  2  0  0  0
 44 45  1  0  0  0
 45 46  2  0  0  0
 46 47  1  0  0  0
 47 48  2  0  0  0
  1  2  1  0  0  0
  2  3  2  0  0  0
  2  4  1  0  0  0
  4  6  1  0  0  0
  6 14  1  0  0  0
 14 15  1  0  0  0
 15 16  1  0  0  0
 16 17  1  0  0  0
 17 18  2  0  0  0
 18 19  1  0  0  0
 18 20  1  0  0  0
  6  7  1  0  0  0
  7  8  2  0  0  0
  7  9  1  0  0  0
  9 10  2  0  0  0
 10 11  1  0  0  0
 11 12  2  0  0  0
 12 13  1  0  0  0
 33 29  1  0  0  0
 55 50  1  0  0  0
 48 43  1  0  0  0
 13  9  1  0  0  0
 61 64  1  0  0  0
 61 65  1  0  0  0
 63 66  1  0  0  0
 59 60  1  0  0  0
 25 28  1  0  0  0
 37 40  1  0  0  0
  4  5  1  0  0  0
 19 21  1  0  0  0
 19 22  1  0  0  0
 20 23  1  0  0  0
 20 24  1  0  0  0
M  END
> <minimizedAffinity>
3.87386

> <CNNscore>
0.4516612589

> <CNNaffinity>
8.3413448334

> <CNN_VS>
3.7674622536

> <CNNaffinity_variance>
0.4607902467

$$$$
[H]N=C(N([H])[H])N([H])C([H])([H])C([H])([H])C([H])([H])[C@@]([H])(C(=O)N([H])[C@]([H])(C(=O)c1nc([H])c([H])s1)C([H])([H])C([H])([H])C([H])([H])N=C(N([H])[H])N([H])[H])N([H])C(=O)[C@@]1([H])N(C(=O)[C@]([H])(N([H])C(=O)OC([H])([H])c2c([H])c([H])c([H])c([H])c2[H])C([H])([H])c2c([H])c([H])c([H])c([H])c2[H])C([H])([H])C([H])([H])C1([H])[H]


 66 69  0  0  0  0  0  0  0  0999 V2000
    7.7726   46.5499  132.0167 C   0  0  0  0  0  0  0  0  0  0  0  0
    7.9019   45.8688  130.7233 C   0  0  0  0  0  0  0  0  0  0  0  0
    7.0463   44.9986  130.3783 O   0  0  0  0  0  0  0  0  0  0  0  0
    8.9574   46.1539  129.8399 N   0  0  0  0  0  0  0  0  0  0  0  0
    9.7114   46.8497  130.0038 H   0  0  0  0  0  0  0  0  0  0  0  0
    9.0627   45.4319  128.5405 C   0  0  0  0  0  0  0  0  0  0  0  0
   10.2815   44.6616  128.5768 C   0  0  0  0  0  0  0  0  0  0  0  0
   10.4473   43.7078  127.7630 O   0  0  0  0  0  0  0  0  0  0  0  0
   11.3651   44.9285  129.5163 C   0  0  0  0  0  0  0  0  0  0  0  0
   11.4285   45.6629  130.6132 N   0  0  0  0  0  0  0  0  0  0  0  0
   12.5184   45.7457  131.2933 C   0  0  0  0  0  0  0  0  0  0  0  0
   13.6142   45.0469  130.8439 C   0  0  0  0  0  0  0  0  0  0  0  0
   12.9821   44.3030  129.4397 S   0  0  0  0  0  0  0  0  0  0  0  0
    9.0041   46.5649  127.5350 C   0  0  0  0  0  0  0  0  0  0  0  0
    8.7111   47.9117  128.0684 C   0  0  0  0  0  0  0  0  0  0  0  0
    7.2296   48.1873  127.8298 C   0  0  0  0  0  0  0  0  0  0  0  0
    6.3500   47.2721  128.4760 N   0  0  0  0  0  0  0  0  0  0  0  0
    5.2653   47.6143  129.0452 C   0  0  0  0  0  0  0  0  0  0  0  0
    4.9088   49.0023  129.0355 N   0  0  0  0  0  0  0  0  0  0  0  0
    4.3938   46.6641  129.6840 N   0  0  0  0  0  0  0  0  0  0  0  0
    4.1290   49.3181  128.4205 H   0  0  0  0  0  0  0  0  0  0  0  0
    5.4629   49.6265  129.6593 H   0  0  0  0  0  0  0  0  0  0  0  0
    3.3980   46.5924  129.3742 H   0  0  0  0  0  0  0  0  0  0  0  0
    4.6969   46.0294  130.4511 H   0  0  0  0  0  0  0  0  0  0  0  0
    8.9112   46.2715  132.8880 N   0  0  0  0  0  0  0  0  0  0  0  0
    8.6794   45.7507  134.1721 C   0  0  0  0  0  0  0  0  0  0  0  0
    7.5046   45.5538  134.5377 O   0  0  0  0  0  0  0  0  0  0  0  0
    9.8554   46.4656  132.5342 H   0  0  0  0  0  0  0  0  0  0  0  0
    9.8039   45.4487  135.0552 C   0  0  0  0  0  0  0  0  0  0  0  0
    9.6845   46.3438  136.3347 C   0  0  0  0  0  0  0  0  0  0  0  0
   10.2275   47.6731  135.8505 C   0  0  0  0  0  0  0  0  0  0  0  0
   11.0756   47.3520  134.6541 C   0  0  0  0  0  0  0  0  0  0  0  0
   11.0944   45.9039  134.6153 N   0  0  0  0  0  0  0  0  0  0  0  0
   12.2481   45.1778  134.2424 C   0  0  0  0  0  0  0  0  0  0  0  0
   13.2692   45.7874  133.8657 O   0  0  0  0  0  0  0  0  0  0  0  0
   12.2753   43.7069  134.2993 C   0  0  0  0  0  0  0  0  0  0  0  0
   13.5277   43.2601  134.9505 N   0  0  0  0  0  0  0  0  0  0  0  0
   13.5150   42.8324  136.3168 C   0  0  0  0  0  0  0  0  0  0  0  0
   12.4625   42.8310  137.0010 O   0  0  0  0  0  0  0  0  0  0  0  0
   14.4274   43.2445  134.4510 H   0  0  0  0  0  0  0  0  0  0  0  0
   14.6808   42.4061  136.9230 O   0  0  0  0  0  0  0  0  0  0  0  0
   14.7495   42.0586  138.2615 C   0  0  0  0  0  0  0  0  0  0  0  0
   16.0816   41.8572  138.8344 C   0  0  0  0  0  0  0  0  0  0  0  0
   17.1226   42.5998  138.2888 C   0  0  0  0  0  0  0  0  0  0  0  0
   18.4155   42.5013  138.7511 C   0  0  0  0  0  0  0  0  0  0  0  0
   18.7150   41.6419  139.7915 C   0  0  0  0  0  0  0  0  0  0  0  0
   17.6940   40.9000  140.3405 C   0  0  0  0  0  0  0  0  0  0  0  0
   16.3864   41.0055  139.8670 C   0  0  0  0  0  0  0  0  0  0  0  0
   12.1183   42.9850  133.0034 C   0  0  0  0  0  0  0  0  0  0  0  0
   10.7515   42.7452  132.5512 C   0  0  0  0  0  0  0  0  0  0  0  0
    9.7186   42.7612  133.4588 C   0  0  0  0  0  0  0  0  0  0  0  0
    8.3977   42.5683  133.1157 C   0  0  0  0  0  0  0  0  0  0  0  0
    8.1123   42.3497  131.7950 C   0  0  0  0  0  0  0  0  0  0  0  0
    9.0961   42.3219  130.8451 C   0  0  0  0  0  0  0  0  0  0  0  0
   10.4242   42.5231  131.2434 C   0  0  0  0  0  0  0  0  0  0  0  0
    7.6794   48.0727  131.8047 C   0  0  0  0  0  0  0  0  0  0  0  0
    9.0458   48.7086  131.9101 C   0  0  0  0  0  0  0  0  0  0  0  0
    8.9644   50.1352  131.4301 C   0  0  0  0  0  0  0  0  0  0  0  0
    8.4586   50.1852  130.0917 N   0  0  0  0  0  0  0  0  0  0  0  0
    8.9579   49.6883  129.3289 H   0  0  0  0  0  0  0  0  0  0  0  0
    7.1299   51.6004  128.5540 N   0  0  0  0  0  0  0  0  0  0  0  0
    7.2570   50.9117  129.7733 C   0  0  0  0  0  0  0  0  0  0  0  0
    6.2947   50.9349  130.6077 N   0  0  0  0  0  0  0  0  0  0  0  0
    7.8439   51.4196  127.8007 H   0  0  0  0  0  0  0  0  0  0  0  0
    6.3960   52.2730  128.3297 H   0  0  0  0  0  0  0  0  0  0  0  0
    6.3160   50.4481  131.5320 H   0  0  0  0  0  0  0  0  0  0  0  0
 61 62  1  0  0  0
 62 63  2  0  0  0
 62 59  1  0  0  0
 59 58  1  0  0  0
 58 57  1  0  0  0
 57 56  1  0  0  0
 56  1  1  0  0  0
  1 25  1  0  0  0
 25 26  1  0  0  0
 26 27  2  0  0  0
 26 29  1  0  0  0
 29 30  1  0  0  0
 30 31  1  0  0  0
 31 32  1  0  0  0
 32 33  1  0  0  0
 33 34  1  0  0  0
 34 35  2  0  0  0
 34 36  1  0  0  0
 36 49  1  0  0  0
 49 50  1  0  0  0
 50 51  2  0  0  0
 51 52  1  0  0  0
 52 53  2  0  0  0
 53 54  1  0  0  0
 54 55  2  0  0  0
 36 37  1  0  0  0
 37 38  1  0  0  0
 38 39  2  0  0  0
 38 41  1  0  0  0
 41 42  1  0  0  0
 42 43  1  0  0  0
 43 44  2  0  0  0
 44 45  1  0  0  0
 45 46  2  0  0  0
 46 47  1  0  0  0
 47 48  2  0  0  0
  1  2  1  0  0  0
  2  3  2  0  0  0
  2  4  1  0  0  0
  4  6  1  0  0  0
  6 14  1  0  0  0
 14 15  1  0  0  0
 15 16  1  0  0  0
 16 17  1  0  0  0
 17 18  2  0  0  0
 18 19  1  0  0  0
 18 20  1  0  0  0
  6  7  1  0  0  0
  7  8  2  0  0  0
  7  9  1  0  0  0
  9 10  2  0  0  0
 10 11  1  0  0  0
 11 12  2  0  0  0
 12 13  1  0  0  0
 33 29  1  0  0  0
 55 50  1  0  0  0
 48 43  1  0  0  0
 13  9  1  0  0  0
 61 64  1  0  0  0
 61 65  1  0  0  0
 63 66  1  0  0  0
 59 60  1  0  0  0
 25 28  1  0  0  0
 37 40  1  0  0  0
  4  5  1  0  0  0
 19 21  1  0  0  0
 19 22  1  0  0  0
 20 23  1  0  0  0
 20 24  1  0  0  0
M  END
> <minimizedAffinity>
10.85456

> <CNNscore>
0.4504656196

> <CNNaffinity>
8.5584430695

> <CNN_VS>
3.8552844524

> <CNNaffinity_variance>
0.4772088528

$$$$
[H]N=C(N([H])[H])N([H])C([H])([H])C([H])([H])C([H])([H])[C@@]([H])(C(=O)N([H])[C@]([H])(C(=O)c1nc([H])c([H])s1)C([H])([H])C([H])([H])C([H])([H])N=C(N([H])[H])N([H])[H])N([H])C(=O)[C@@]1([H])N(C(=O)[C@]([H])(N([H])C(=O)OC([H])([H])c2c([H])c([H])c([H])c([H])c2[H])C([H])([H])c2c([H])c([H])c([H])c([H])c2[H])C([H])([H])C([H])([H])C1([H])[H]


 66 69  0  0  0  0  0  0  0  0999 V2000
    6.5908   46.4608  129.1398 C   0  0  0  0  0  0  0  0  0  0  0  0
    7.1095   47.8151  128.9154 C   0  0  0  0  0  0  0  0  0  0  0  0
    7.2774   48.2402  127.7325 O   0  0  0  0  0  0  0  0  0  0  0  0
    7.4299   48.6705  129.9837 N   0  0  0  0  0  0  0  0  0  0  0  0
    7.3277   48.4424  130.9922 H   0  0  0  0  0  0  0  0  0  0  0  0
    7.9669   50.0347  129.7163 C   0  0  0  0  0  0  0  0  0  0  0  0
    8.7484   50.4196  130.8657 C   0  0  0  0  0  0  0  0  0  0  0  0
    8.7218   51.6169  131.2722 O   0  0  0  0  0  0  0  0  0  0  0  0
    9.5840   49.4842  131.6107 C   0  0  0  0  0  0  0  0  0  0  0  0
   10.0648   48.2903  131.3108 N   0  0  0  0  0  0  0  0  0  0  0  0
   10.7972   47.6415  132.1475 C   0  0  0  0  0  0  0  0  0  0  0  0
   11.0639   48.2283  133.3622 C   0  0  0  0  0  0  0  0  0  0  0  0
   10.2201   49.7081  133.2097 S   0  0  0  0  0  0  0  0  0  0  0  0
    6.7056   50.8333  129.4531 C   0  0  0  0  0  0  0  0  0  0  0  0
    6.8612   52.2974  129.3249 C   0  0  0  0  0  0  0  0  0  0  0  0
    7.0869   52.6071  127.8481 C   0  0  0  0  0  0  0  0  0  0  0  0
    7.1038   53.9964  127.5348 N   0  0  0  0  0  0  0  0  0  0  0  0
    7.4116   54.4608  126.3914 C   0  0  0  0  0  0  0  0  0  0  0  0
    7.7619   53.5307  125.3591 N   0  0  0  0  0  0  0  0  0  0  0  0
    7.4127   55.8708  126.1040 N   0  0  0  0  0  0  0  0  0  0  0  0
    7.0883   53.3633  124.5817 H   0  0  0  0  0  0  0  0  0  0  0  0
    8.6912   53.0678  125.4494 H   0  0  0  0  0  0  0  0  0  0  0  0
    6.8203   56.2357  125.3238 H   0  0  0  0  0  0  0  0  0  0  0  0
    7.9769   56.5663  126.6340 H   0  0  0  0  0  0  0  0  0  0  0  0
    7.6582   45.5258  129.4853 N   0  0  0  0  0  0  0  0  0  0  0  0
    8.9919   45.8835  129.2266 C   0  0  0  0  0  0  0  0  0  0  0  0
    9.2263   46.9858  128.6951 O   0  0  0  0  0  0  0  0  0  0  0  0
    7.4011   44.6273  129.9108 H   0  0  0  0  0  0  0  0  0  0  0  0
   10.0776   44.9710  129.5790 C   0  0  0  0  0  0  0  0  0  0  0  0
   11.3986   45.4931  128.9194 C   0  0  0  0  0  0  0  0  0  0  0  0
   11.2573   45.0120  127.4894 C   0  0  0  0  0  0  0  0  0  0  0  0
   10.2792   43.8742  127.5402 C   0  0  0  0  0  0  0  0  0  0  0  0
   10.0440   43.6762  128.9559 N   0  0  0  0  0  0  0  0  0  0  0  0
    9.8746   42.3897  129.5161 C   0  0  0  0  0  0  0  0  0  0  0  0
    9.8554   41.3879  128.7731 O   0  0  0  0  0  0  0  0  0  0  0  0
    9.7299   42.2035  130.9693 C   0  0  0  0  0  0  0  0  0  0  0  0
    9.0786   43.3955  131.5584 N   0  0  0  0  0  0  0  0  0  0  0  0
    8.1062   43.2437  132.5982 C   0  0  0  0  0  0  0  0  0  0  0  0
    7.7706   42.1144  133.0319 O   0  0  0  0  0  0  0  0  0  0  0  0
    9.3001   44.3501  131.2439 H   0  0  0  0  0  0  0  0  0  0  0  0
    7.5046   44.3553  133.1555 O   0  0  0  0  0  0  0  0  0  0  0  0
    8.0440   45.6273  133.0661 C   0  0  0  0  0  0  0  0  0  0  0  0
    8.5396   46.2339  134.3029 C   0  0  0  0  0  0  0  0  0  0  0  0
    7.9882   47.4554  134.6723 C   0  0  0  0  0  0  0  0  0  0  0  0
    8.3688   48.1161  135.8185 C   0  0  0  0  0  0  0  0  0  0  0  0
    9.3302   47.5677  136.6466 C   0  0  0  0  0  0  0  0  0  0  0  0
    9.8851   46.3590  136.2924 C   0  0  0  0  0  0  0  0  0  0  0  0
    9.4940   45.6954  135.1298 C   0  0  0  0  0  0  0  0  0  0  0  0
   10.9766   41.9054  131.7323 C   0  0  0  0  0  0  0  0  0  0  0  0
   11.6130   43.0314  132.4085 C   0  0  0  0  0  0  0  0  0  0  0  0
   12.2679   43.9899  131.6714 C   0  0  0  0  0  0  0  0  0  0  0  0
   12.8750   45.0963  132.2252 C   0  0  0  0  0  0  0  0  0  0  0  0
   12.8154   45.2366  133.5854 C   0  0  0  0  0  0  0  0  0  0  0  0
   12.1789   44.3167  134.3727 C   0  0  0  0  0  0  0  0  0  0  0  0
   11.5769   43.2083  133.7628 C   0  0  0  0  0  0  0  0  0  0  0  0
    5.5610   46.4729  130.2852 C   0  0  0  0  0  0  0  0  0  0  0  0
    4.2450   47.0435  129.8108 C   0  0  0  0  0  0  0  0  0  0  0  0
    3.2400   45.9271  129.6844 C   0  0  0  0  0  0  0  0  0  0  0  0
    1.9886   46.3119  130.2636 N   0  0  0  0  0  0  0  0  0  0  0  0
    1.9601   46.7068  131.2235 H   0  0  0  0  0  0  0  0  0  0  0  0
    0.4476   44.9753  128.8595 N   0  0  0  0  0  0  0  0  0  0  0  0
    0.7534   46.1684  129.5379 C   0  0  0  0  0  0  0  0  0  0  0  0
   -0.0749   47.1356  129.5061 N   0  0  0  0  0  0  0  0  0  0  0  0
    1.0423   44.1263  129.0479 H   0  0  0  0  0  0  0  0  0  0  0  0
   -0.3112   44.8561  128.1877 H   0  0  0  0  0  0  0  0  0  0  0  0
    0.0827   48.0509  129.9850 H   0  0  0  0  0  0  0  0  0  0  0  0
 61 62  1  0  0  0
 62 63  2  0  0  0
 62 59  1  0  0  0
 59 58  1  0  0  0
 58 57  1  0  0  0
 57 56  1  0  0  0
 56  1  1  0  0  0
  1 25  1  0  0  0
 25 26  1  0  0  0
 26 27  2  0  0  0
 26 29  1  0  0  0
 29 30  1  0  0  0
 30 31  1  0  0  0
 31 32  1  0  0  0
 32 33  1  0  0  0
 33 34  1  0  0  0
 34 35  2  0  0  0
 34 36  1  0  0  0
 36 49  1  0  0  0
 49 50  1  0  0  0
 50 51  2  0  0  0
 51 52  1  0  0  0
 52 53  2  0  0  0
 53 54  1  0  0  0
 54 55  2  0  0  0
 36 37  1  0  0  0
 37 38  1  0  0  0
 38 39  2  0  0  0
 38 41  1  0  0  0
 41 42  1  0  0  0
 42 43  1  0  0  0
 43 44  2  0  0  0
 44 45  1  0  0  0
 45 46  2  0  0  0
 46 47  1  0  0  0
 47 48  2  0  0  0
  1  2  1  0  0  0
  2  3  2  0  0  0
  2  4  1  0  0  0
  4  6  1  0  0  0
  6 14  1  0  0  0
 14 15  1  0  0  0
 15 16  1  0  0  0
 16 17  1  0  0  0
 17 18  2  0  0  0
 18 19  1  0  0  0
 18 20  1  0  0  0
  6  7  1  0  0  0
  7  8  2  0  0  0
  7  9  1  0  0  0
  9 10  2  0  0  0
 10 11  1  0  0  0
 11 12  2  0  0  0
 12 13  1  0  0  0
 33 29  1  0  0  0
 55 50  1  0  0  0
 48 43  1  0  0  0
 13  9  1  0  0  0
 61 64  1  0  0  0
 61 65  1  0  0  0
 63 66  1  0  0  0
 59 60  1  0  0  0
 25 28  1  0  0  0
 37 40  1  0  0  0
  4  5  1  0  0  0
 19 21  1  0  0  0
 19 22  1  0  0  0
 20 23  1  0  0  0
 20 24  1  0  0  0
M  END
> <minimizedAffinity>
6.39904

> <CNNscore>
0.4421259761

> <CNNaffinity>
8.6106319427

> <CNN_VS>
3.8069839478

> <CNNaffinity_variance>
0.5443497896

$$$$
[H]N=C(N([H])[H])N([H])C([H])([H])C([H])([H])C([H])([H])[C@@]([H])(C(=O)N([H])[C@]([H])(C(=O)c1nc([H])c([H])s1)C([H])([H])C([H])([H])C([H])([H])N=C(N([H])[H])N([H])[H])N([H])C(=O)[C@@]1([H])N(C(=O)[C@]([H])(N([H])C(=O)OC([H])([H])c2c([H])c([H])c([H])c([H])c2[H])C([H])([H])c2c([H])c([H])c([H])c([H])c2[H])C([H])([H])C([H])([H])C1([H])[H]


 66 69  0  0  0  0  0  0  0  0999 V2000
    6.8990   51.5572  130.2634 C   0  0  0  0  0  0  0  0  0  0  0  0
    5.6583   50.7736  130.2822 C   0  0  0  0  0  0  0  0  0  0  0  0
    4.8499   50.8921  131.2522 O   0  0  0  0  0  0  0  0  0  0  0  0
    5.3301   49.8838  129.2448 N   0  0  0  0  0  0  0  0  0  0  0  0
    5.9030   49.7072  128.3962 H   0  0  0  0  0  0  0  0  0  0  0  0
    4.0670   49.0953  129.3055 C   0  0  0  0  0  0  0  0  0  0  0  0
    4.4353   47.7027  129.3774 C   0  0  0  0  0  0  0  0  0  0  0  0
    3.5420   46.8238  129.5480 O   0  0  0  0  0  0  0  0  0  0  0  0
    5.8117   47.2351  129.2552 C   0  0  0  0  0  0  0  0  0  0  0  0
    6.4595   46.2266  129.8116 N   0  0  0  0  0  0  0  0  0  0  0  0
    7.6989   46.0057  129.5425 C   0  0  0  0  0  0  0  0  0  0  0  0
    8.3280   46.8508  128.6588 C   0  0  0  0  0  0  0  0  0  0  0  0
    7.0595   47.9299  128.2693 S   0  0  0  0  0  0  0  0  0  0  0  0
    3.3448   49.5437  128.0503 C   0  0  0  0  0  0  0  0  0  0  0  0
    3.1558   50.9993  127.8771 C   0  0  0  0  0  0  0  0  0  0  0  0
    2.0845   51.1988  126.8093 C   0  0  0  0  0  0  0  0  0  0  0  0
    0.9929   52.0176  127.2178 N   0  0  0  0  0  0  0  0  0  0  0  0
    0.9259   53.2689  127.0000 C   0  0  0  0  0  0  0  0  0  0  0  0
    2.0132   53.8900  126.3033 N   0  0  0  0  0  0  0  0  0  0  0  0
   -0.1947   54.0681  127.4197 N   0  0  0  0  0  0  0  0  0  0  0  0
    1.8718   54.1933  125.3163 H   0  0  0  0  0  0  0  0  0  0  0  0
    2.9001   54.0049  126.8383 H   0  0  0  0  0  0  0  0  0  0  0  0
   -0.7273   54.6184  126.7082 H   0  0  0  0  0  0  0  0  0  0  0  0
   -0.5168   54.1352  128.4070 H   0  0  0  0  0  0  0  0  0  0  0  0
    7.9352   50.9447  131.0905 N   0  0  0  0  0  0  0  0  0  0  0  0
    7.8202   49.5886  131.4391 C   0  0  0  0  0  0  0  0  0  0  0  0
    6.8272   48.9484  131.0434 O   0  0  0  0  0  0  0  0  0  0  0  0
    8.7239   51.5272  131.3954 H   0  0  0  0  0  0  0  0  0  0  0  0
    8.8533   48.9500  132.2519 C   0  0  0  0  0  0  0  0  0  0  0  0
    9.0533   49.7958  133.5547 C   0  0  0  0  0  0  0  0  0  0  0  0
    9.9275   50.9345  133.0693 C   0  0  0  0  0  0  0  0  0  0  0  0
   10.5922   50.4304  131.8212 C   0  0  0  0  0  0  0  0  0  0  0  0
   10.1977   49.0382  131.7508 N   0  0  0  0  0  0  0  0  0  0  0  0
   11.0791   48.0299  131.2993 C   0  0  0  0  0  0  0  0  0  0  0  0
   12.2122   48.3399  130.8794 O   0  0  0  0  0  0  0  0  0  0  0  0
   10.6906   46.6101  131.3235 C   0  0  0  0  0  0  0  0  0  0  0  0
   10.5591   46.1571  132.7270 N   0  0  0  0  0  0  0  0  0  0  0  0
    9.2632   46.0179  133.3195 C   0  0  0  0  0  0  0  0  0  0  0  0
    8.2125   46.2801  132.6843 O   0  0  0  0  0  0  0  0  0  0  0  0
   11.3789   45.9338  133.3078 H   0  0  0  0  0  0  0  0  0  0  0  0
    9.1383   45.5862  134.6257 O   0  0  0  0  0  0  0  0  0  0  0  0
    9.8294   44.4964  135.1274 C   0  0  0  0  0  0  0  0  0  0  0  0
   10.6119   43.7035  134.1775 C   0  0  0  0  0  0  0  0  0  0  0  0
    9.9396   42.7017  133.4867 C   0  0  0  0  0  0  0  0  0  0  0  0
   10.5685   41.8984  132.5624 C   0  0  0  0  0  0  0  0  0  0  0  0
   11.9133   42.0733  132.2945 C   0  0  0  0  0  0  0  0  0  0  0  0
   12.5913   43.0611  132.9719 C   0  0  0  0  0  0  0  0  0  0  0  0
   11.9472   43.8713  133.9067 C   0  0  0  0  0  0  0  0  0  0  0  0
   11.5776   45.6619  130.5891 C   0  0  0  0  0  0  0  0  0  0  0  0
   10.9304   44.7727  129.6297 C   0  0  0  0  0  0  0  0  0  0  0  0
   10.0282   43.8328  130.0697 C   0  0  0  0  0  0  0  0  0  0  0  0
    9.3547   42.9701  129.2321 C   0  0  0  0  0  0  0  0  0  0  0  0
    9.6071   43.0649  127.8902 C   0  0  0  0  0  0  0  0  0  0  0  0
   10.4939   43.9791  127.3914 C   0  0  0  0  0  0  0  0  0  0  0  0
   11.1543   44.8343  128.2833 C   0  0  0  0  0  0  0  0  0  0  0  0
    7.4285   51.6732  128.8217 C   0  0  0  0  0  0  0  0  0  0  0  0
    7.4317   53.1152  128.3710 C   0  0  0  0  0  0  0  0  0  0  0  0
    6.9146   53.1914  126.9572 C   0  0  0  0  0  0  0  0  0  0  0  0
    7.7175   54.0845  126.1778 N   0  0  0  0  0  0  0  0  0  0  0  0
    8.7527   54.0505  126.2512 H   0  0  0  0  0  0  0  0  0  0  0  0
    7.8431   56.1507  124.8185 N   0  0  0  0  0  0  0  0  0  0  0  0
    7.1188   55.0372  125.2796 C   0  0  0  0  0  0  0  0  0  0  0  0
    5.9147   54.8728  124.8976 N   0  0  0  0  0  0  0  0  0  0  0  0
    8.8831   56.1746  124.9849 H   0  0  0  0  0  0  0  0  0  0  0  0
    7.4446   56.9530  124.3298 H   0  0  0  0  0  0  0  0  0  0  0  0
    5.3149   54.0713  125.1972 H   0  0  0  0  0  0  0  0  0  0  0  0
 61 62  1  0  0  0
 62 63  2  0  0  0
 62 59  1  0  0  0
 59 58  1  0  0  0
 58 57  1  0  0  0
 57 56  1  0  0  0
 56  1  1  0  0  0
  1 25  1  0  0  0
 25 26  1  0  0  0
 26 27  2  0  0  0
 26 29  1  0  0  0
 29 30  1  0  0  0
 30 31  1  0  0  0
 31 32  1  0  0  0
 32 33  1  0  0  0
 33 34  1  0  0  0
 34 35  2  0  0  0
 34 36  1  0  0  0
 36 49  1  0  0  0
 49 50  1  0  0  0
 50 51  2  0  0  0
 51 52  1  0  0  0
 52 53  2  0  0  0
 53 54  1  0  0  0
 54 55  2  0  0  0
 36 37  1  0  0  0
 37 38  1  0  0  0
 38 39  2  0  0  0
 38 41  1  0  0  0
 41 42  1  0  0  0
 42 43  1  0  0  0
 43 44  2  0  0  0
 44 45  1  0  0  0
 45 46  2  0  0  0
 46 47  1  0  0  0
 47 48  2  0  0  0
  1  2  1  0  0  0
  2  3  2  0  0  0
  2  4  1  0  0  0
  4  6  1  0  0  0
  6 14  1  0  0  0
 14 15  1  0  0  0
 15 16  1  0  0  0
 16 17  1  0  0  0
 17 18  2  0  0  0
 18 19  1  0  0  0
 18 20  1  0  0  0
  6  7  1  0  0  0
  7  8  2  0  0  0
  7  9  1  0  0  0
  9 10  2  0  0  0
 10 11  1  0  0  0
 11 12  2  0  0  0
 12 13  1  0  0  0
 33 29  1  0  0  0
 55 50  1  0  0  0
 48 43  1  0  0  0
 13  9  1  0  0  0
 61 64  1  0  0  0
 61 65  1  0  0  0
 63 66  1  0  0  0
 59 60  1  0  0  0
 25 28  1  0  0  0
 37 40  1  0  0  0
  4  5  1  0  0  0
 19 21  1  0  0  0
 19 22  1  0  0  0
 20 23  1  0  0  0
 20 24  1  0  0  0
M  END
> <minimizedAffinity>
12.03612

> <CNNscore>
0.4362792671

> <CNNaffinity>
8.1220216751

> <CNN_VS>
3.5434696674

> <CNNaffinity_variance>
0.6054033041

$$$$
[H]N=C(N([H])[H])N([H])C([H])([H])C([H])([H])C([H])([H])[C@@]([H])(C(=O)N([H])[C@]([H])(C(=O)c1nc([H])c([H])s1)C([H])([H])C([H])([H])C([H])([H])N=C(N([H])[H])N([H])[H])N([H])C(=O)[C@@]1([H])N(C(=O)[C@]([H])(N([H])C(=O)OC([H])([H])c2c([H])c([H])c([H])c([H])c2[H])C([H])([H])c2c([H])c([H])c([H])c([H])c2[H])C([H])([H])C([H])([H])C1([H])[H]


 66 69  0  0  0  0  0  0  0  0999 V2000
    8.8163   45.6562  129.6681 C   0  0  0  0  0  0  0  0  0  0  0  0
    8.2797   45.1844  130.9499 C   0  0  0  0  0  0  0  0  0  0  0  0
    7.1031   45.5038  131.2991 O   0  0  0  0  0  0  0  0  0  0  0  0
    9.0369   44.3768  131.8160 N   0  0  0  0  0  0  0  0  0  0  0  0
   10.0043   44.0419  131.6387 H   0  0  0  0  0  0  0  0  0  0  0  0
    8.4624   43.9280  133.1158 C   0  0  0  0  0  0  0  0  0  0  0  0
    8.2995   45.1009  133.9392 C   0  0  0  0  0  0  0  0  0  0  0  0
    7.1707   45.3617  134.4463 O   0  0  0  0  0  0  0  0  0  0  0  0
    9.3894   46.0243  134.2351 C   0  0  0  0  0  0  0  0  0  0  0  0
   10.6724   46.0142  133.9182 N   0  0  0  0  0  0  0  0  0  0  0  0
   11.4567   46.9612  134.2995 C   0  0  0  0  0  0  0  0  0  0  0  0
   10.9192   47.9831  135.0463 C   0  0  0  0  0  0  0  0  0  0  0  0
    9.2831   47.4956  135.1493 S   0  0  0  0  0  0  0  0  0  0  0  0
    9.4788   42.9049  133.5829 C   0  0  0  0  0  0  0  0  0  0  0  0
   10.3929   42.3606  132.5570 C   0  0  0  0  0  0  0  0  0  0  0  0
   11.7544   43.0183  132.7604 C   0  0  0  0  0  0  0  0  0  0  0  0
   12.5285   43.1469  131.5717 N   0  0  0  0  0  0  0  0  0  0  0  0
   12.9510   44.2577  131.1185 C   0  0  0  0  0  0  0  0  0  0  0  0
   12.6283   45.4486  131.8473 N   0  0  0  0  0  0  0  0  0  0  0  0
   13.7375   44.3541  129.9173 N   0  0  0  0  0  0  0  0  0  0  0  0
   13.3793   45.9273  132.3885 H   0  0  0  0  0  0  0  0  0  0  0  0
   11.6395   45.7723  131.7899 H   0  0  0  0  0  0  0  0  0  0  0  0
   14.6808   44.8028  129.9565 H   0  0  0  0  0  0  0  0  0  0  0  0
   13.4216   43.9983  128.9918 H   0  0  0  0  0  0  0  0  0  0  0  0
    8.7605   47.1119  129.5641 N   0  0  0  0  0  0  0  0  0  0  0  0
    9.6092   47.8889  130.3701 C   0  0  0  0  0  0  0  0  0  0  0  0
   10.3779   47.3127  131.1636 O   0  0  0  0  0  0  0  0  0  0  0  0
    8.0977   47.5286  128.8996 H   0  0  0  0  0  0  0  0  0  0  0  0
    9.5828   49.3466  130.2713 C   0  0  0  0  0  0  0  0  0  0  0  0
   10.6349   49.9312  131.2732 C   0  0  0  0  0  0  0  0  0  0  0  0
    9.8974   49.8576  132.5950 C   0  0  0  0  0  0  0  0  0  0  0  0
    8.4392   49.8033  132.2421 C   0  0  0  0  0  0  0  0  0  0  0  0
    8.4178   49.9965  130.8065 N   0  0  0  0  0  0  0  0  0  0  0  0
    7.4080   50.7493  130.1653 C   0  0  0  0  0  0  0  0  0  0  0  0
    6.4605   51.2105  130.8329 O   0  0  0  0  0  0  0  0  0  0  0  0
    7.4556   51.0121  128.7175 C   0  0  0  0  0  0  0  0  0  0  0  0
    6.7603   52.2856  128.4228 N   0  0  0  0  0  0  0  0  0  0  0  0
    7.2054   53.1153  127.3442 C   0  0  0  0  0  0  0  0  0  0  0  0
    8.1893   52.8025  126.6300 O   0  0  0  0  0  0  0  0  0  0  0  0
    5.9526   52.6070  128.9739 H   0  0  0  0  0  0  0  0  0  0  0  0
    6.5518   54.2991  127.0618 O   0  0  0  0  0  0  0  0  0  0  0  0
    7.1144   55.3049  126.2944 C   0  0  0  0  0  0  0  0  0  0  0  0
    7.2510   55.0556  124.8583 C   0  0  0  0  0  0  0  0  0  0  0  0
    8.4448   55.4435  124.2607 C   0  0  0  0  0  0  0  0  0  0  0  0
    8.6906   55.2521  122.9198 C   0  0  0  0  0  0  0  0  0  0  0  0
    7.7341   54.6569  122.1188 C   0  0  0  0  0  0  0  0  0  0  0  0
    6.5472   54.2686  122.6974 C   0  0  0  0  0  0  0  0  0  0  0  0
    6.3056   54.4655  124.0567 C   0  0  0  0  0  0  0  0  0  0  0  0
    6.9128   49.9459  127.8265 C   0  0  0  0  0  0  0  0  0  0  0  0
    6.0327   48.9614  128.4480 C   0  0  0  0  0  0  0  0  0  0  0  0
    6.3630   47.6272  128.4072 C   0  0  0  0  0  0  0  0  0  0  0  0
    5.6030   46.6344  128.9873 C   0  0  0  0  0  0  0  0  0  0  0  0
    4.4586   47.0113  129.6367 C   0  0  0  0  0  0  0  0  0  0  0  0
    4.0765   48.3226  129.7112 C   0  0  0  0  0  0  0  0  0  0  0  0
    4.8824   49.2954  129.1053 C   0  0  0  0  0  0  0  0  0  0  0  0
   10.2824   45.2103  129.5132 C   0  0  0  0  0  0  0  0  0  0  0  0
   10.6364   45.0450  128.0538 C   0  0  0  0  0  0  0  0  0  0  0  0
   10.5154   43.5902  127.6784 C   0  0  0  0  0  0  0  0  0  0  0  0
    9.2728   43.0541  128.1456 N   0  0  0  0  0  0  0  0  0  0  0  0
    8.4021   43.2119  127.6024 H   0  0  0  0  0  0  0  0  0  0  0  0
   10.3374   41.6459  129.8822 N   0  0  0  0  0  0  0  0  0  0  0  0
    9.1996   42.2878  129.3623 C   0  0  0  0  0  0  0  0  0  0  0  0
    8.0886   42.1861  129.9772 N   0  0  0  0  0  0  0  0  0  0  0  0
   11.2786   41.8903  129.4769 H   0  0  0  0  0  0  0  0  0  0  0  0
   10.3332   40.9507  130.6293 H   0  0  0  0  0  0  0  0  0  0  0  0
    7.2022   42.6341  129.6524 H   0  0  0  0  0  0  0  0  0  0  0  0
 61 62  1  0  0  0
 62 63  2  0  0  0
 62 59  1  0  0  0
 59 58  1  0  0  0
 58 57  1  0  0  0
 57 56  1  0  0  0
 56  1  1  0  0  0
  1 25  1  0  0  0
 25 26  1  0  0  0
 26 27  2  0  0  0
 26 29  1  0  0  0
 29 30  1  0  0  0
 30 31  1  0  0  0
 31 32  1  0  0  0
 32 33  1  0  0  0
 33 34  1  0  0  0
 34 35  2  0  0  0
 34 36  1  0  0  0
 36 49  1  0  0  0
 49 50  1  0  0  0
 50 51  2  0  0  0
 51 52  1  0  0  0
 52 53  2  0  0  0
 53 54  1  0  0  0
 54 55  2  0  0  0
 36 37  1  0  0  0
 37 38  1  0  0  0
 38 39  2  0  0  0
 38 41  1  0  0  0
 41 42  1  0  0  0
 42 43  1  0  0  0
 43 44  2  0  0  0
 44 45  1  0  0  0
 45 46  2  0  0  0
 46 47  1  0  0  0
 47 48  2  0  0  0
  1  2  1  0  0  0
  2  3  2  0  0  0
  2  4  1  0  0  0
  4  6  1  0  0  0
  6 14  1  0  0  0
 14 15  1  0  0  0
 15 16  1  0  0  0
 16 17  1  0  0  0
 17 18  2  0  0  0
 18 19  1  0  0  0
 18 20  1  0  0  0
  6  7  1  0  0  0
  7  8  2  0  0  0
  7  9  1  0  0  0
  9 10  2  0  0  0
 10 11  1  0  0  0
 11 12  2  0  0  0
 12 13  1  0  0  0
 33 29  1  0  0  0
 55 50  1  0  0  0
 48 43  1  0  0  0
 13  9  1  0  0  0
 61 64  1  0  0  0
 61 65  1  0  0  0
 63 66  1  0  0  0
 59 60  1  0  0  0
 25 28  1  0  0  0
 37 40  1  0  0  0
  4  5  1  0  0  0
 19 21  1  0  0  0
 19 22  1  0  0  0
 20 23  1  0  0  0
 20 24  1  0  0  0
M  END
> <minimizedAffinity>
2.10906

> <CNNscore>
0.4342193604

> <CNNaffinity>
8.3689851761

> <CNN_VS>
3.6339755058

> <CNNaffinity_variance>
0.2995286286

$$$$
[H]c1c([H])c([H])c2c(c1[H])N=C(N1C([H])([H])C([H])([H])N(C([H])([H])[H])C([H])([H])C1([H])[H])c1c([H])c([H])c([H])c([H])c1S2


 22 25  0  0  0  0  0  0  0  0999 V2000
    8.7989   46.7082  131.1718 C   0  0  0  0  0  0  0  0  0  0  0  0
    8.7725   46.5635  132.4329 N   0  0  0  0  0  0  0  0  0  0  0  0
    9.4681   45.7138  133.3165 C   0  0  0  0  0  0  0  0  0  0  0  0
    9.5286   46.2290  134.6158 C   0  0  0  0  0  0  0  0  0  0  0  0
   10.1495   45.5773  135.6353 C   0  0  0  0  0  0  0  0  0  0  0  0
   10.7431   44.3573  135.3721 C   0  0  0  0  0  0  0  0  0  0  0  0
   10.6895   43.8360  134.0865 C   0  0  0  0  0  0  0  0  0  0  0  0
   10.0534   44.5176  133.0705 C   0  0  0  0  0  0  0  0  0  0  0  0
   10.1524   43.6047  131.5417 S   0  0  0  0  0  0  0  0  0  0  0  0
   10.1657   44.7792  130.2104 C   0  0  0  0  0  0  0  0  0  0  0  0
   10.8765   44.2873  129.1457 C   0  0  0  0  0  0  0  0  0  0  0  0
   11.0026   45.0627  128.0106 C   0  0  0  0  0  0  0  0  0  0  0  0
   10.4235   46.3105  127.9491 C   0  0  0  0  0  0  0  0  0  0  0  0
    9.7044   46.8200  129.0134 C   0  0  0  0  0  0  0  0  0  0  0  0
    9.5856   46.0212  130.1573 C   0  0  0  0  0  0  0  0  0  0  0  0
    7.4068   50.7118  128.5030 C   0  0  0  0  0  0  0  0  0  0  0  0
    6.5683   49.7302  129.1636 N   0  0  0  0  0  0  0  0  0  0  0  0
    6.8868   48.4346  128.6372 C   0  0  0  0  0  0  0  0  0  0  0  0
    6.8857   47.3501  129.7198 C   0  0  0  0  0  0  0  0  0  0  0  0
    7.9023   47.7139  130.6864 N   0  0  0  0  0  0  0  0  0  0  0  0
    7.9499   49.1001  131.1054 C   0  0  0  0  0  0  0  0  0  0  0  0
    6.6697   49.7685  130.5946 C   0  0  0  0  0  0  0  0  0  0  0  0
 16 17  1  0  0  0
 17 18  1  0  0  0
 18 19  1  0  0  0
 19 20  1  0  0  0
 20 21  1  0  0  0
 21 22  1  0  0  0
 20  1  1  0  0  0
  1  2  2  0  0  0
  2  3  1  0  0  0
  3  4  2  0  0  0
  4  5  1  0  0  0
  5  6  2  0  0  0
  6  7  1  0  0  0
  7  8  2  0  0  0
  8  9  1  0  0  0
  9 10  1  0  0  0
 10 11  2  0  0  0
 11 12  1  0  0  0
 12 13  2  0  0  0
 13 14  1  0  0  0
 14 15  2  0  0  0
 22 17  1  0  0  0
 15  1  1  0  0  0
  8  3  1  0  0  0
 15 10  1  0  0  0
M  END
> <minimizedAffinity>
-5.08843

> <CNNscore>
0.4239403307

> <CNNaffinity>
7.1573562622

> <CNN_VS>
3.0342919827

> <CNNaffinity_variance>
0.2920705378

$$$$
[H]c1c([H])c([H])c2c(c1[H])N=C(N1C([H])([H])C([H])([H])N(C([H])([H])[H])C([H])([H])C1([H])[H])c1c([H])c([H])c([H])c([H])c1S2


 22 25  0  0  0  0  0  0  0  0999 V2000
    8.8423   46.3767  130.7229 C   0  0  0  0  0  0  0  0  0  0  0  0
    9.0281   45.1552  130.4302 N   0  0  0  0  0  0  0  0  0  0  0  0
    9.8599   44.1542  130.9711 C   0  0  0  0  0  0  0  0  0  0  0  0
    9.3832   42.8652  130.7095 C   0  0  0  0  0  0  0  0  0  0  0  0
   10.0265   41.7448  131.1344 C   0  0  0  0  0  0  0  0  0  0  0  0
   11.1978   41.8908  131.8531 C   0  0  0  0  0  0  0  0  0  0  0  0
   11.6806   43.1650  132.1189 C   0  0  0  0  0  0  0  0  0  0  0  0
   11.0085   44.2849  131.6763 C   0  0  0  0  0  0  0  0  0  0  0  0
   11.8647   45.7691  132.1707 S   0  0  0  0  0  0  0  0  0  0  0  0
   10.6503   47.0444  132.3958 C   0  0  0  0  0  0  0  0  0  0  0  0
   11.0627   47.9337  133.3549 C   0  0  0  0  0  0  0  0  0  0  0  0
   10.2455   48.9995  133.6740 C   0  0  0  0  0  0  0  0  0  0  0  0
    9.0352   49.1665  133.0387 C   0  0  0  0  0  0  0  0  0  0  0  0
    8.6058   48.2791  132.0704 C   0  0  0  0  0  0  0  0  0  0  0  0
    9.4461   47.2035  131.7582 C   0  0  0  0  0  0  0  0  0  0  0  0
    5.1815   49.6077  129.6054 C   0  0  0  0  0  0  0  0  0  0  0  0
    6.0390   48.8658  128.7014 N   0  0  0  0  0  0  0  0  0  0  0  0
    7.4026   49.2031  128.9911 C   0  0  0  0  0  0  0  0  0  0  0  0
    8.3342   47.9898  128.9007 C   0  0  0  0  0  0  0  0  0  0  0  0
    7.8801   47.0313  129.8882 N   0  0  0  0  0  0  0  0  0  0  0  0
    6.4531   46.7945  129.9721 C   0  0  0  0  0  0  0  0  0  0  0  0
    5.8157   47.4487  128.7424 C   0  0  0  0  0  0  0  0  0  0  0  0
 16 17  1  0  0  0
 17 18  1  0  0  0
 18 19  1  0  0  0
 19 20  1  0  0  0
 20 21  1  0  0  0
 21 22  1  0  0  0
 20  1  1  0  0  0
  1  2  2  0  0  0
  2  3  1  0  0  0
  3  4  2  0  0  0
  4  5  1  0  0  0
  5  6  2  0  0  0
  6  7  1  0  0  0
  7  8  2  0  0  0
  8  9  1  0  0  0
  9 10  1  0  0  0
 10 11  2  0  0  0
 11 12  1  0  0  0
 12 13  2  0  0  0
 13 14  1  0  0  0
 14 15  2  0  0  0
 22 17  1  0  0  0
 15  1  1  0  0  0
  8  3  1  0  0  0
 15 10  1  0  0  0
M  END
> <minimizedAffinity>
-4.76952

> <CNNscore>
0.3914842904

> <CNNaffinity>
7.0086641312

> <CNN_VS>
2.7437818050

> <CNNaffinity_variance>
0.2525455058

$$$$
[H]c1c([H])c([H])c2c(c1[H])N=C(N1C([H])([H])C([H])([H])N(C([H])([H])[H])C([H])([H])C1([H])[H])c1c([H])c([H])c([H])c([H])c1S2


 22 25  0  0  0  0  0  0  0  0999 V2000
    9.4969   46.7456  130.5406 C   0  0  0  0  0  0  0  0  0  0  0  0
   10.4912   46.4273  129.8180 N   0  0  0  0  0  0  0  0  0  0  0  0
   11.5817   45.5564  130.0154 C   0  0  0  0  0  0  0  0  0  0  0  0
   12.1344   45.1115  128.8096 C   0  0  0  0  0  0  0  0  0  0  0  0
   13.1974   44.2647  128.7582 C   0  0  0  0  0  0  0  0  0  0  0  0
   13.7502   43.8290  129.9475 C   0  0  0  0  0  0  0  0  0  0  0  0
   13.2102   44.2638  131.1503 C   0  0  0  0  0  0  0  0  0  0  0  0
   12.1317   45.1228  131.1744 C   0  0  0  0  0  0  0  0  0  0  0  0
   11.6635   45.4982  132.8537 S   0  0  0  0  0  0  0  0  0  0  0  0
    9.9136   45.7975  132.8732 C   0  0  0  0  0  0  0  0  0  0  0  0
    9.3800   45.4362  134.0838 C   0  0  0  0  0  0  0  0  0  0  0  0
    8.0240   45.5925  134.2900 C   0  0  0  0  0  0  0  0  0  0  0  0
    7.2204   46.1032  133.2953 C   0  0  0  0  0  0  0  0  0  0  0  0
    7.7431   46.4717  132.0703 C   0  0  0  0  0  0  0  0  0  0  0  0
    9.1200   46.3072  131.8769 C   0  0  0  0  0  0  0  0  0  0  0  0
    5.1926   49.2004  129.8084 C   0  0  0  0  0  0  0  0  0  0  0  0
    6.5192   49.5408  129.3318 N   0  0  0  0  0  0  0  0  0  0  0  0
    7.3866   49.6784  130.4658 C   0  0  0  0  0  0  0  0  0  0  0  0
    8.7825   49.1029  130.2042 C   0  0  0  0  0  0  0  0  0  0  0  0
    8.6142   47.6908  129.9254 N   0  0  0  0  0  0  0  0  0  0  0  0
    7.5401   47.3178  129.0273 C   0  0  0  0  0  0  0  0  0  0  0  0
    7.0342   48.6066  128.3717 C   0  0  0  0  0  0  0  0  0  0  0  0
 16 17  1  0  0  0
 17 18  1  0  0  0
 18 19  1  0  0  0
 19 20  1  0  0  0
 20 21  1  0  0  0
 21 22  1  0  0  0
 20  1  1  0  0  0
  1  2  2  0  0  0
  2  3  1  0  0  0
  3  4  2  0  0  0
  4  5  1  0  0  0
  5  6  2  0  0  0
  6  7  1  0  0  0
  7  8  2  0  0  0
  8  9  1  0  0  0
  9 10  1  0  0  0
 10 11  2  0  0  0
 11 12  1  0  0  0
 12 13  2  0  0  0
 13 14  1  0  0  0
 14 15  2  0  0  0
 22 17  1  0  0  0
 15  1  1  0  0  0
  8  3  1  0  0  0
 15 10  1  0  0  0
M  END
> <minimizedAffinity>
-2.01038

> <CNNscore>
0.3683024645

> <CNNaffinity>
6.9061827660

> <CNN_VS>
2.5435640812

> <CNNaffinity_variance>
0.3570959568

$$$$
[H]c1c([H])c([H])c2c(c1[H])N=C(N1C([H])([H])C([H])([H])N(C([H])([H])[H])C([H])([H])C1([H])[H])c1c([H])c([H])c([H])c([H])c1S2


 22 25  0  0  0  0  0  0  0  0999 V2000
   10.5117   46.4183  131.5538 C   0  0  0  0  0  0  0  0  0  0  0  0
   10.6850   45.6438  130.5627 N   0  0  0  0  0  0  0  0  0  0  0  0
   10.4515   45.7868  129.1801 C   0  0  0  0  0  0  0  0  0  0  0  0
   11.2473   44.9295  128.4128 C   0  0  0  0  0  0  0  0  0  0  0  0
   11.1890   44.8938  127.0546 C   0  0  0  0  0  0  0  0  0  0  0  0
   10.3064   45.7405  126.4110 C   0  0  0  0  0  0  0  0  0  0  0  0
    9.5115   46.5958  127.1620 C   0  0  0  0  0  0  0  0  0  0  0  0
    9.5905   46.6120  128.5386 C   0  0  0  0  0  0  0  0  0  0  0  0
    8.4573   47.8086  129.2200 S   0  0  0  0  0  0  0  0  0  0  0  0
    9.1612   48.4211  130.7304 C   0  0  0  0  0  0  0  0  0  0  0  0
    8.7665   49.7158  130.9516 C   0  0  0  0  0  0  0  0  0  0  0  0
    9.2173   50.3683  132.0815 C   0  0  0  0  0  0  0  0  0  0  0  0
   10.0502   49.7286  132.9721 C   0  0  0  0  0  0  0  0  0  0  0  0
   10.4566   48.4245  132.7632 C   0  0  0  0  0  0  0  0  0  0  0  0
    9.9907   47.7766  131.6127 C   0  0  0  0  0  0  0  0  0  0  0  0
   10.9715   42.8163  135.0039 C   0  0  0  0  0  0  0  0  0  0  0  0
   11.6542   44.0938  134.9350 N   0  0  0  0  0  0  0  0  0  0  0  0
   12.3606   44.1634  133.6886 C   0  0  0  0  0  0  0  0  0  0  0  0
   12.2940   45.5588  133.0588 C   0  0  0  0  0  0  0  0  0  0  0  0
   10.8956   45.8456  132.8091 N   0  0  0  0  0  0  0  0  0  0  0  0
    9.9563   45.5249  133.8646 C   0  0  0  0  0  0  0  0  0  0  0  0
   10.7786   45.2158  135.1196 C   0  0  0  0  0  0  0  0  0  0  0  0
 16 17  1  0  0  0
 17 18  1  0  0  0
 18 19  1  0  0  0
 19 20  1  0  0  0
 20 21  1  0  0  0
 21 22  1  0  0  0
 20  1  1  0  0  0
  1  2  2  0  0  0
  2  3  1  0  0  0
  3  4  2  0  0  0
  4  5  1  0  0  0
  5  6  2  0  0  0
  6  7  1  0  0  0
  7  8  2  0  0  0
  8  9  1  0  0  0
  9 10  1  0  0  0
 10 11  2  0  0  0
 11 12  1  0  0  0
 12 13  2  0  0  0
 13 14  1  0  0  0
 14 15  2  0  0  0
 22 17  1  0  0  0
 15  1  1  0  0  0
  8  3  1  0  0  0
 15 10  1  0  0  0
M  END
> <minimizedAffinity>
3.46911

> <CNNscore>
0.3248274326

> <CNNaffinity>
6.8670816422

> <CNN_VS>
2.2306165695

> <CNNaffinity_variance>
1.1672809124

$$$$
[H]c1c([H])c([H])c2c(c1[H])N=C(N1C([H])([H])C([H])([H])N(C([H])([H])[H])C([H])([H])C1([H])[H])c1c([H])c([H])c([H])c([H])c1S2


 22 25  0  0  0  0  0  0  0  0999 V2000
    9.2029   46.2020  131.5173 C   0  0  0  0  0  0  0  0  0  0  0  0
    8.7107   47.3716  131.5617 N   0  0  0  0  0  0  0  0  0  0  0  0
    8.2451   48.2556  130.5676 C   0  0  0  0  0  0  0  0  0  0  0  0
    7.3290   49.1870  131.0681 C   0  0  0  0  0  0  0  0  0  0  0  0
    6.7505   50.1390  130.2880 C   0  0  0  0  0  0  0  0  0  0  0  0
    7.0842   50.1841  128.9477 C   0  0  0  0  0  0  0  0  0  0  0  0
    7.9922   49.2649  128.4396 C   0  0  0  0  0  0  0  0  0  0  0  0
    8.5644   48.3094  129.2527 C   0  0  0  0  0  0  0  0  0  0  0  0
    9.6804   47.2766  128.3208 S   0  0  0  0  0  0  0  0  0  0  0  0
    9.6777   45.6660  129.0677 C   0  0  0  0  0  0  0  0  0  0  0  0
    9.9207   44.7008  128.1242 C   0  0  0  0  0  0  0  0  0  0  0  0
    9.9541   43.3773  128.5151 C   0  0  0  0  0  0  0  0  0  0  0  0
    9.7465   43.0323  129.8319 C   0  0  0  0  0  0  0  0  0  0  0  0
    9.5005   43.9931  130.7941 C   0  0  0  0  0  0  0  0  0  0  0  0
    9.4699   45.3308  130.3817 C   0  0  0  0  0  0  0  0  0  0  0  0
   10.1860   46.3414  136.4269 C   0  0  0  0  0  0  0  0  0  0  0  0
    9.8817   45.1906  135.5986 N   0  0  0  0  0  0  0  0  0  0  0  0
    8.6002   45.3975  134.9886 C   0  0  0  0  0  0  0  0  0  0  0  0
    8.5596   44.9048  133.5382 C   0  0  0  0  0  0  0  0  0  0  0  0
    9.5458   45.6700  132.8020 N   0  0  0  0  0  0  0  0  0  0  0  0
   10.8400   45.8547  133.4268 C   0  0  0  0  0  0  0  0  0  0  0  0
   10.8992   44.9055  134.6276 C   0  0  0  0  0  0  0  0  0  0  0  0
 16 17  1  0  0  0
 17 18  1  0  0  0
 18 19  1  0  0  0
 19 20  1  0  0  0
 20 21  1  0  0  0
 21 22  1  0  0  0
 20  1  1  0  0  0
  1  2  2  0  0  0
  2  3  1  0  0  0
  3  4  2  0  0  0
  4  5  1  0  0  0
  5  6  2  0  0  0
  6  7  1  0  0  0
  7  8  2  0  0  0
  8  9  1  0  0  0
  9 10  1  0  0  0
 10 11  2  0  0  0
 11 12  1  0  0  0
 12 13  2  0  0  0
 13 14  1  0  0  0
 14 15  2  0  0  0
 22 17  1  0  0  0
 15  1  1  0  0  0
  8  3  1  0  0  0
 15 10  1  0  0  0
M  END
> <minimizedAffinity>
-1.50860

> <CNNscore>
0.3017715812

> <CNNaffinity>
6.8447241783

> <CNN_VS>
2.0655431747

> <CNNaffinity_variance>
0.4594675601

$$$$
[H]c1c([H])c([H])c2c(c1[H])N=C(N1C([H])([H])C([H])([H])N(C([H])([H])[H])C([H])([H])C1([H])[H])c1c([H])c([H])c([H])c([H])c1S2


 22 25  0  0  0  0  0  0  0  0999 V2000
    9.4703   46.4533  130.7750 C   0  0  0  0  0  0  0  0  0  0  0  0
    9.5336   46.4489  132.0431 N   0  0  0  0  0  0  0  0  0  0  0  0
    9.9790   45.4936  132.9788 C   0  0  0  0  0  0  0  0  0  0  0  0
   10.3589   46.0735  134.1939 C   0  0  0  0  0  0  0  0  0  0  0  0
   10.8193   45.3418  135.2438 C   0  0  0  0  0  0  0  0  0  0  0  0
   10.9139   43.9706  135.0995 C   0  0  0  0  0  0  0  0  0  0  0  0
   10.5398   43.3839  133.8981 C   0  0  0  0  0  0  0  0  0  0  0  0
   10.0761   44.1492  132.8490 C   0  0  0  0  0  0  0  0  0  0  0  0
    9.6796   43.1209  131.4469 S   0  0  0  0  0  0  0  0  0  0  0  0
    9.9582   44.0784  129.9780 C   0  0  0  0  0  0  0  0  0  0  0  0
   10.3294   43.2637  128.9392 C   0  0  0  0  0  0  0  0  0  0  0  0
   10.5942   43.8290  127.7080 C   0  0  0  0  0  0  0  0  0  0  0  0
   10.4872   45.1898  127.5265 C   0  0  0  0  0  0  0  0  0  0  0  0
   10.1144   46.0238  128.5633 C   0  0  0  0  0  0  0  0  0  0  0  0
    9.8491   45.4350  129.8057 C   0  0  0  0  0  0  0  0  0  0  0  0
    6.3612   50.3681  130.4633 C   0  0  0  0  0  0  0  0  0  0  0  0
    7.6390   50.1746  129.8056 N   0  0  0  0  0  0  0  0  0  0  0  0
    8.6403   49.9704  130.8121 C   0  0  0  0  0  0  0  0  0  0  0  0
    9.6639   48.9044  130.4071 C   0  0  0  0  0  0  0  0  0  0  0  0
    8.9365   47.6640  130.2270 N   0  0  0  0  0  0  0  0  0  0  0  0
    7.6891   47.7299  129.4927 C   0  0  0  0  0  0  0  0  0  0  0  0
    7.6248   49.1138  128.8390 C   0  0  0  0  0  0  0  0  0  0  0  0
 16 17  1  0  0  0
 17 18  1  0  0  0
 18 19  1  0  0  0
 19 20  1  0  0  0
 20 21  1  0  0  0
 21 22  1  0  0  0
 20  1  1  0  0  0
  1  2  2  0  0  0
  2  3  1  0  0  0
  3  4  2  0  0  0
  4  5  1  0  0  0
  5  6  2  0  0  0
  6  7  1  0  0  0
  7  8  2  0  0  0
  8  9  1  0  0  0
  9 10  1  0  0  0
 10 11  2  0  0  0
 11 12  1  0  0  0
 12 13  2  0  0  0
 13 14  1  0  0  0
 14 15  2  0  0  0
 22 17  1  0  0  0
 15  1  1  0  0  0
  8  3  1  0  0  0
 15 10  1  0  0  0
M  END
> <minimizedAffinity>
-6.91187

> <CNNscore>
0.2977144122

> <CNNaffinity>
7.0087251663

> <CNN_VS>
2.0865983963

> <CNNaffinity_variance>
0.0396859162

$$$$
[H]c1c([H])c([H])c2c(c1[H])N=C(N1C([H])([H])C([H])([H])N(C([H])([H])[H])C([H])([H])C1([H])[H])c1c([H])c([H])c([H])c([H])c1S2


 22 25  0  0  0  0  0  0  0  0999 V2000
   10.2493   45.5544  131.3932 C   0  0  0  0  0  0  0  0  0  0  0  0
    9.8765   46.7099  131.7645 N   0  0  0  0  0  0  0  0  0  0  0  0
    9.2352   47.7725  131.0965 C   0  0  0  0  0  0  0  0  0  0  0  0
    8.5561   48.6231  131.9753 C   0  0  0  0  0  0  0  0  0  0  0  0
    7.8675   49.7170  131.5523 C   0  0  0  0  0  0  0  0  0  0  0  0
    7.8405   49.9951  130.1988 C   0  0  0  0  0  0  0  0  0  0  0  0
    8.5108   49.1580  129.3170 C   0  0  0  0  0  0  0  0  0  0  0  0
    9.2017   48.0550  129.7725 C   0  0  0  0  0  0  0  0  0  0  0  0
    9.9524   47.1773  128.4136 S   0  0  0  0  0  0  0  0  0  0  0  0
   10.0230   45.4586  128.8530 C   0  0  0  0  0  0  0  0  0  0  0  0
    9.9359   44.6742  127.7314 C   0  0  0  0  0  0  0  0  0  0  0  0
    9.9697   43.3013  127.8715 C   0  0  0  0  0  0  0  0  0  0  0  0
   10.0890   42.7291  129.1183 C   0  0  0  0  0  0  0  0  0  0  0  0
   10.1777   43.5059  130.2577 C   0  0  0  0  0  0  0  0  0  0  0  0
   10.1421   44.8965  130.0987 C   0  0  0  0  0  0  0  0  0  0  0  0
   11.1220   44.0334  136.0852 C   0  0  0  0  0  0  0  0  0  0  0  0
   11.5120   43.3971  134.8418 N   0  0  0  0  0  0  0  0  0  0  0  0
   10.3279   43.1345  134.0763 C   0  0  0  0  0  0  0  0  0  0  0  0
   10.5344   43.3881  132.5792 C   0  0  0  0  0  0  0  0  0  0  0  0
   10.8755   44.7885  132.4288 N   0  0  0  0  0  0  0  0  0  0  0  0
   11.8446   45.3360  133.3564 C   0  0  0  0  0  0  0  0  0  0  0  0
   12.4773   44.1531  134.0959 C   0  0  0  0  0  0  0  0  0  0  0  0
 16 17  1  0  0  0
 17 18  1  0  0  0
 18 19  1  0  0  0
 19 20  1  0  0  0
 20 21  1  0  0  0
 21 22  1  0  0  0
 20  1  1  0  0  0
  1  2  2  0  0  0
  2  3  1  0  0  0
  3  4  2  0  0  0
  4  5  1  0  0  0
  5  6  2  0  0  0
  6  7  1  0  0  0
  7  8  2  0  0  0
  8  9  1  0  0  0
  9 10  1  0  0  0
 10 11  2  0  0  0
 11 12  1  0  0  0
 12 13  2  0  0  0
 13 14  1  0  0  0
 14 15  2  0  0  0
 22 17  1  0  0  0
 15  1  1  0  0  0
  8  3  1  0  0  0
 15 10  1  0  0  0
M  END
> <minimizedAffinity>
-3.51587

> <CNNscore>
0.2425741851

> <CNNaffinity>
6.7732400894

> <CNN_VS>
1.6430132389

> <CNNaffinity_variance>
0.4338053167

$$$$
[H]c1c([H])c([H])c2c(c1[H])N=C(N1C([H])([H])C([H])([H])N(C([H])([H])[H])C([H])([H])C1([H])[H])c1c([H])c([H])c([H])c([H])c1S2


 22 25  0  0  0  0  0  0  0  0999 V2000
    8.7859   46.4696  130.3296 C   0  0  0  0  0  0  0  0  0  0  0  0
    9.6582   46.4557  131.2521 N   0  0  0  0  0  0  0  0  0  0  0  0
    9.9920   47.3700  132.2715 C   0  0  0  0  0  0  0  0  0  0  0  0
   10.6285   46.7535  133.3541 C   0  0  0  0  0  0  0  0  0  0  0  0
   11.0425   47.4424  134.4511 C   0  0  0  0  0  0  0  0  0  0  0  0
   10.8232   48.8063  134.4935 C   0  0  0  0  0  0  0  0  0  0  0  0
   10.1924   49.4292  133.4250 C   0  0  0  0  0  0  0  0  0  0  0  0
    9.7824   48.7068  132.3243 C   0  0  0  0  0  0  0  0  0  0  0  0
    9.0061   49.7740  131.1248 S   0  0  0  0  0  0  0  0  0  0  0  0
    7.7873   48.8171  130.2583 C   0  0  0  0  0  0  0  0  0  0  0  0
    6.7510   49.6179  129.8515 C   0  0  0  0  0  0  0  0  0  0  0  0
    5.6991   49.0506  129.1606 C   0  0  0  0  0  0  0  0  0  0  0  0
    5.6912   47.7016  128.8846 C   0  0  0  0  0  0  0  0  0  0  0  0
    6.7279   46.8816  129.2878 C   0  0  0  0  0  0  0  0  0  0  0  0
    7.7872   47.4723  129.9873 C   0  0  0  0  0  0  0  0  0  0  0  0
   10.8403   42.6351  127.8465 C   0  0  0  0  0  0  0  0  0  0  0  0
    9.4485   42.8428  128.1968 N   0  0  0  0  0  0  0  0  0  0  0  0
    9.3544   42.9714  129.6222 C   0  0  0  0  0  0  0  0  0  0  0  0
    8.3409   44.0403  130.0446 C   0  0  0  0  0  0  0  0  0  0  0  0
    8.8025   45.3017  129.5007 N   0  0  0  0  0  0  0  0  0  0  0  0
    9.2639   45.3000  128.1273 C   0  0  0  0  0  0  0  0  0  0  0  0
    8.8523   43.9569  127.5163 C   0  0  0  0  0  0  0  0  0  0  0  0
 16 17  1  0  0  0
 17 18  1  0  0  0
 18 19  1  0  0  0
 19 20  1  0  0  0
 20 21  1  0  0  0
 21 22  1  0  0  0
 20  1  1  0  0  0
  1  2  2  0  0  0
  2  3  1  0  0  0
  3  4  2  0  0  0
  4  5  1  0  0  0
  5  6  2  0  0  0
  6  7  1  0  0  0
  7  8  2  0  0  0
  8  9  1  0  0  0
  9 10  1  0  0  0
 10 11  2  0  0  0
 11 12  1  0  0  0
 12 13  2  0  0  0
 13 14  1  0  0  0
 14 15  2  0  0  0
 22 17  1  0  0  0
 15  1  1  0  0  0
  8  3  1  0  0  0
 15 10  1  0  0  0
M  END
> <minimizedAffinity>
-2.05390

> <CNNscore>
0.1974830180

> <CNNaffinity>
6.5965132713

> <CNN_VS>
1.3026993275

> <CNNaffinity_variance>
0.3154279590

$$$$
[H]c1c([H])c([H])c2c(c1[H])N=C(N1C([H])([H])C([H])([H])N(C([H])([H])[H])C([H])([H])C1([H])[H])c1c([H])c([H])c([H])c([H])c1S2


 22 25  0  0  0  0  0  0  0  0999 V2000
    9.1059   47.2334  130.8804 C   0  0  0  0  0  0  0  0  0  0  0  0
    9.5358   46.7418  129.7915 N   0  0  0  0  0  0  0  0  0  0  0  0
   10.4521   45.7115  129.4990 C   0  0  0  0  0  0  0  0  0  0  0  0
   10.2427   45.1545  128.2328 C   0  0  0  0  0  0  0  0  0  0  0  0
   11.0103   44.1465  127.7387 C   0  0  0  0  0  0  0  0  0  0  0  0
   12.0372   43.6560  128.5228 C   0  0  0  0  0  0  0  0  0  0  0  0
   12.2546   44.2008  129.7811 C   0  0  0  0  0  0  0  0  0  0  0  0
   11.4612   45.2227  130.2583 C   0  0  0  0  0  0  0  0  0  0  0  0
   11.9777   45.7089  131.8945 S   0  0  0  0  0  0  0  0  0  0  0  0
   10.5425   46.2867  132.7653 C   0  0  0  0  0  0  0  0  0  0  0  0
   10.6691   46.0452  134.1094 C   0  0  0  0  0  0  0  0  0  0  0  0
    9.6460   46.4229  134.9557 C   0  0  0  0  0  0  0  0  0  0  0  0
    8.5163   47.0325  134.4574 C   0  0  0  0  0  0  0  0  0  0  0  0
    8.3740   47.2826  133.1058 C   0  0  0  0  0  0  0  0  0  0  0  0
    9.4204   46.8936  132.2608 C   0  0  0  0  0  0  0  0  0  0  0  0
    7.0920   51.2662  128.6962 C   0  0  0  0  0  0  0  0  0  0  0  0
    6.4923   50.3693  129.6652 N   0  0  0  0  0  0  0  0  0  0  0  0
    6.5137   49.0402  129.1263 C   0  0  0  0  0  0  0  0  0  0  0  0
    6.8394   47.9861  130.1897 C   0  0  0  0  0  0  0  0  0  0  0  0
    8.1596   48.2935  130.7021 N   0  0  0  0  0  0  0  0  0  0  0  0
    8.4447   49.6817  131.0038 C   0  0  0  0  0  0  0  0  0  0  0  0
    7.1115   50.4348  130.9582 C   0  0  0  0  0  0  0  0  0  0  0  0
 16 17  1  0  0  0
 17 18  1  0  0  0
 18 19  1  0  0  0
 19 20  1  0  0  0
 20 21  1  0  0  0
 21 22  1  0  0  0
 20  1  1  0  0  0
  1  2  2  0  0  0
  2  3  1  0  0  0
  3  4  2  0  0  0
  4  5  1  0  0  0
  5  6  2  0  0  0
  6  7  1  0  0  0
  7  8  2  0  0  0
  8  9  1  0  0  0
  9 10  1  0  0  0
 10 11  2  0  0  0
 11 12  1  0  0  0
 12 13  2  0  0  0
 13 14  1  0  0  0
 14 15  2  0  0  0
 22 17  1  0  0  0
 15  1  1  0  0  0
  8  3  1  0  0  0
 15 10  1  0  0  0
M  END
> <minimizedAffinity>
-4.87300

> <CNNscore>
0.1893783808

> <CNNaffinity>
6.7397551537

> <CNN_VS>
1.2763639688

> <CNNaffinity_variance>
0.0807592422

$$$$
[H]c1nc2c([H])c(OC([H])([H])C([H])([H])C([H])([H])N3C([H])([H])C([H])([H])OC([H])([H])C3([H])[H])c(OC([H])([H])[H])c([H])c2c(Oc2c([H])c([H])c(N([H])C(=O)C3(C(=O)N([H])c4c([H])c([H])c(F)c([H])c4[H])C([H])([H])C3([H])[H])c([H])c2F)c1[H]


 48 53  0  0  0  0  0  0  0  0999 V2000
   11.7400   45.2584  133.8164 C   0  0  0  0  0  0  0  0  0  0  0  0
   12.8606   45.9681  134.2193 C   0  0  0  0  0  0  0  0  0  0  0  0
   13.8817   45.3636  134.9564 C   0  0  0  0  0  0  0  0  0  0  0  0
   13.8364   44.0396  135.3207 C   0  0  0  0  0  0  0  0  0  0  0  0
   12.7172   43.3373  134.9159 C   0  0  0  0  0  0  0  0  0  0  0  0
   11.6873   43.9320  134.1787 C   0  0  0  0  0  0  0  0  0  0  0  0
   10.5916   43.1997  133.8228 F   0  0  0  0  0  0  0  0  0  0  0  0
   14.8626   43.4108  136.0858 N   0  0  0  0  0  0  0  0  0  0  0  0
   14.6592   42.6579  137.2622 C   0  0  0  0  0  0  0  0  0  0  0  0
   13.5426   42.4913  137.7893 O   0  0  0  0  0  0  0  0  0  0  0  0
   15.8530   43.5081  135.7466 H   0  0  0  0  0  0  0  0  0  0  0  0
   15.8714   42.0011  137.8892 C   0  0  0  0  0  0  0  0  0  0  0  0
   16.3996   40.7880  137.1397 C   0  0  0  0  0  0  0  0  0  0  0  0
   15.5370   40.6107  138.3759 C   0  0  0  0  0  0  0  0  0  0  0  0
   16.7639   42.8424  138.6982 C   0  0  0  0  0  0  0  0  0  0  0  0
   17.0232   44.0292  138.2363 O   0  0  0  0  0  0  0  0  0  0  0  0
   17.3755   42.4927  139.9099 N   0  0  0  0  0  0  0  0  0  0  0  0
   17.2401   41.5054  140.2885 H   0  0  0  0  0  0  0  0  0  0  0  0
   18.2160   43.3714  140.6715 C   0  0  0  0  0  0  0  0  0  0  0  0
   19.3076   42.8814  141.3076 C   0  0  0  0  0  0  0  0  0  0  0  0
   20.0915   43.7109  142.0823 C   0  0  0  0  0  0  0  0  0  0  0  0
   19.7443   45.0549  142.2000 C   0  0  0  0  0  0  0  0  0  0  0  0
   20.4780   45.9292  142.9441 F   0  0  0  0  0  0  0  0  0  0  0  0
   18.6256   45.5708  141.5512 C   0  0  0  0  0  0  0  0  0  0  0  0
   17.8848   44.7050  140.7970 C   0  0  0  0  0  0  0  0  0  0  0  0
   10.7470   45.9159  133.0844 O   0  0  0  0  0  0  0  0  0  0  0  0
    8.7801   47.5010  129.8614 C   0  0  0  0  0  0  0  0  0  0  0  0
    9.4447   46.9886  130.9547 C   0  0  0  0  0  0  0  0  0  0  0  0
    9.8432   47.8327  132.0008 C   0  0  0  0  0  0  0  0  0  0  0  0
   10.5143   47.2785  133.0989 C   0  0  0  0  0  0  0  0  0  0  0  0
   10.9020   48.0968  134.1219 C   0  0  0  0  0  0  0  0  0  0  0  0
   10.6161   49.4592  134.0334 C   0  0  0  0  0  0  0  0  0  0  0  0
    9.9688   49.9622  132.9648 N   0  0  0  0  0  0  0  0  0  0  0  0
    9.5805   49.1812  131.9576 C   0  0  0  0  0  0  0  0  0  0  0  0
    8.9189   49.7054  130.8715 C   0  0  0  0  0  0  0  0  0  0  0  0
    8.5323   48.8821  129.8543 C   0  0  0  0  0  0  0  0  0  0  0  0
    7.0853   46.1870  128.7011 C   0  0  0  0  0  0  0  0  0  0  0  0
    8.3650   46.7231  128.8132 O   0  0  0  0  0  0  0  0  0  0  0  0
    7.8839   49.4390  128.7910 O   0  0  0  0  0  0  0  0  0  0  0  0
    7.1148   50.6223  128.8694 C   0  0  0  0  0  0  0  0  0  0  0  0
    7.5827   51.6647  127.8884 C   0  0  0  0  0  0  0  0  0  0  0  0
    6.7958   52.9211  128.1017 C   0  0  0  0  0  0  0  0  0  0  0  0
    7.3349   54.0667  127.3916 N   0  0  0  0  0  0  0  0  0  0  0  0
    6.1421   54.8004  126.9089 C   0  0  0  0  0  0  0  0  0  0  0  0
    6.4816   55.8691  125.9262 C   0  0  0  0  0  0  0  0  0  0  0  0
    7.5110   55.5110  125.0366 O   0  0  0  0  0  0  0  0  0  0  0  0
    7.5088   54.1350  124.9317 C   0  0  0  0  0  0  0  0  0  0  0  0
    8.0614   53.5418  126.2294 C   0  0  0  0  0  0  0  0  0  0  0  0
 37 38  1  0  0  0
 38 27  1  0  0  0
 27 28  2  0  0  0
 28 29  1  0  0  0
 29 30  2  0  0  0
 30 26  1  0  0  0
 26  1  1  0  0  0
  1  2  2  0  0  0
  2  3  1  0  0  0
  3  4  2  0  0  0
  4  8  1  0  0  0
  8  9  1  0  0  0
  9 10  2  0  0  0
  9 12  1  0  0  0
 12 13  1  0  0  0
 13 14  1  0  0  0
 12 15  1  0  0  0
 15 16  2  0  0  0
 15 17  1  0  0  0
 17 19  1  0  0  0
 19 20  2  0  0  0
 20 21  1  0  0  0
 21 22  2  0  0  0
 22 23  1  0  0  0
 22 24  1  0  0  0
 24 25  2  0  0  0
  4  5  1  0  0  0
  5  6  2  0  0  0
  6  7  1  0  0  0
 30 31  1  0  0  0
 31 32  2  0  0  0
 32 33  1  0  0  0
 33 34  2  0  0  0
 34 35  1  0  0  0
 35 36  2  0  0  0
 36 39  1  0  0  0
 39 40  1  0  0  0
 40 41  1  0  0  0
 41 42  1  0  0  0
 42 43  1  0  0  0
 43 44  1  0  0  0
 44 45  1  0  0  0
 45 46  1  0  0  0
 46 47  1  0  0  0
 47 48  1  0  0  0
 36 27  1  0  0  0
 48 43  1  0  0  0
 34 29  1  0  0  0
  6  1  1  0  0  0
 14 12  1  0  0  0
 25 19  1  0  0  0
  8 11  1  0  0  0
 17 18  1  0  0  0
M  END
> <minimizedAffinity>
17.11532

> <CNNscore>
0.4318756461

> <CNNaffinity>
7.2318854332

> <CNN_VS>
3.1232752800

> <CNNaffinity_variance>
0.3193322420

$$$$
[H]c1nc2c([H])c(OC([H])([H])C([H])([H])C([H])([H])N3C([H])([H])C([H])([H])OC([H])([H])C3([H])[H])c(OC([H])([H])[H])c([H])c2c(Oc2c([H])c([H])c(N([H])C(=O)C3(C(=O)N([H])c4c([H])c([H])c(F)c([H])c4[H])C([H])([H])C3([H])[H])c([H])c2F)c1[H]


 48 53  0  0  0  0  0  0  0  0999 V2000
    9.2899   44.6229  131.4927 C   0  0  0  0  0  0  0  0  0  0  0  0
   10.6315   44.7992  131.7942 C   0  0  0  0  0  0  0  0  0  0  0  0
   11.6338   44.4925  130.8709 C   0  0  0  0  0  0  0  0  0  0  0  0
   11.3507   44.0037  129.6184 C   0  0  0  0  0  0  0  0  0  0  0  0
   10.0117   43.8304  129.3235 C   0  0  0  0  0  0  0  0  0  0  0  0
    8.9989   44.1325  130.2404 C   0  0  0  0  0  0  0  0  0  0  0  0
    7.6919   43.9216  129.9080 F   0  0  0  0  0  0  0  0  0  0  0  0
   12.3620   43.6712  128.6694 N   0  0  0  0  0  0  0  0  0  0  0  0
   13.7522   43.7947  128.8802 C   0  0  0  0  0  0  0  0  0  0  0  0
   14.2527   44.2526  129.9252 O   0  0  0  0  0  0  0  0  0  0  0  0
   12.0519   43.2976  127.7368 H   0  0  0  0  0  0  0  0  0  0  0  0
   14.6712   43.3140  127.7763 C   0  0  0  0  0  0  0  0  0  0  0  0
   16.0263   44.0021  127.7287 C   0  0  0  0  0  0  0  0  0  0  0  0
   14.9228   44.4130  126.7710 C   0  0  0  0  0  0  0  0  0  0  0  0
   14.5013   41.9358  127.2961 C   0  0  0  0  0  0  0  0  0  0  0  0
   15.1813   41.0159  127.9128 O   0  0  0  0  0  0  0  0  0  0  0  0
   13.6922   41.5122  126.2329 N   0  0  0  0  0  0  0  0  0  0  0  0
   13.1698   42.2441  125.6605 H   0  0  0  0  0  0  0  0  0  0  0  0
   13.5439   40.1435  125.8287 C   0  0  0  0  0  0  0  0  0  0  0  0
   12.7702   39.3025  126.5570 C   0  0  0  0  0  0  0  0  0  0  0  0
   12.6635   37.9737  126.2027 C   0  0  0  0  0  0  0  0  0  0  0  0
   13.3612   37.5119  125.0889 C   0  0  0  0  0  0  0  0  0  0  0  0
   13.2952   36.2135  124.6810 F   0  0  0  0  0  0  0  0  0  0  0  0
   14.1592   38.3657  124.3320 C   0  0  0  0  0  0  0  0  0  0  0  0
   14.2288   39.6718  124.7276 C   0  0  0  0  0  0  0  0  0  0  0  0
    8.3297   44.9423  132.4571 O   0  0  0  0  0  0  0  0  0  0  0  0
    8.8484   48.8490  131.3444 C   0  0  0  0  0  0  0  0  0  0  0  0
    8.6770   47.5401  131.7407 C   0  0  0  0  0  0  0  0  0  0  0  0
    8.6732   47.2074  133.1028 C   0  0  0  0  0  0  0  0  0  0  0  0
    8.4935   45.8674  133.4713 C   0  0  0  0  0  0  0  0  0  0  0  0
    8.4861   45.5390  134.7973 C   0  0  0  0  0  0  0  0  0  0  0  0
    8.6608   46.5536  135.7385 C   0  0  0  0  0  0  0  0  0  0  0  0
    8.8308   47.8329  135.3530 N   0  0  0  0  0  0  0  0  0  0  0  0
    8.8392   48.1745  134.0653 C   0  0  0  0  0  0  0  0  0  0  0  0
    9.0123   49.4845  133.6828 C   0  0  0  0  0  0  0  0  0  0  0  0
    9.0161   49.8060  132.3568 C   0  0  0  0  0  0  0  0  0  0  0  0
    7.8935   48.8480  129.1009 C   0  0  0  0  0  0  0  0  0  0  0  0
    8.8574   49.2312  130.0291 O   0  0  0  0  0  0  0  0  0  0  0  0
    9.1966   51.1146  132.0157 O   0  0  0  0  0  0  0  0  0  0  0  0
    9.1477   52.1831  132.9396 C   0  0  0  0  0  0  0  0  0  0  0  0
   10.3666   52.2206  133.8230 C   0  0  0  0  0  0  0  0  0  0  0  0
   10.2815   53.4182  134.7184 C   0  0  0  0  0  0  0  0  0  0  0  0
   11.5721   53.8592  135.2157 N   0  0  0  0  0  0  0  0  0  0  0  0
   11.8159   55.1476  134.5267 C   0  0  0  0  0  0  0  0  0  0  0  0
   13.2137   55.6373  134.6982 C   0  0  0  0  0  0  0  0  0  0  0  0
   14.1780   54.6133  134.6651 O   0  0  0  0  0  0  0  0  0  0  0  0
   13.6542   53.5738  133.9237 C   0  0  0  0  0  0  0  0  0  0  0  0
   12.5634   52.8843  134.7458 C   0  0  0  0  0  0  0  0  0  0  0  0
 37 38  1  0  0  0
 38 27  1  0  0  0
 27 28  2  0  0  0
 28 29  1  0  0  0
 29 30  2  0  0  0
 30 26  1  0  0  0
 26  1  1  0  0  0
  1  2  2  0  0  0
  2  3  1  0  0  0
  3  4  2  0  0  0
  4  8  1  0  0  0
  8  9  1  0  0  0
  9 10  2  0  0  0
  9 12  1  0  0  0
 12 13  1  0  0  0
 13 14  1  0  0  0
 12 15  1  0  0  0
 15 16  2  0  0  0
 15 17  1  0  0  0
 17 19  1  0  0  0
 19 20  2  0  0  0
 20 21  1  0  0  0
 21 22  2  0  0  0
 22 23  1  0  0  0
 22 24  1  0  0  0
 24 25  2  0  0  0
  4  5  1  0  0  0
  5  6  2  0  0  0
  6  7  1  0  0  0
 30 31  1  0  0  0
 31 32  2  0  0  0
 32 33  1  0  0  0
 33 34  2  0  0  0
 34 35  1  0  0  0
 35 36  2  0  0  0
 36 39  1  0  0  0
 39 40  1  0  0  0
 40 41  1  0  0  0
 41 42  1  0  0  0
 42 43  1  0  0  0
 43 44  1  0  0  0
 44 45  1  0  0  0
 45 46  1  0  0  0
 46 47  1  0  0  0
 47 48  1  0  0  0
 36 27  1  0  0  0
 48 43  1  0  0  0
 34 29  1  0  0  0
  6  1  1  0  0  0
 14 12  1  0  0  0
 25 19  1  0  0  0
  8 11  1  0  0  0
 17 18  1  0  0  0
M  END
> <minimizedAffinity>
51.00974

> <CNNscore>
0.4188942313

> <CNNaffinity>
7.6121621132

> <CNN_VS>
3.1886909008

> <CNNaffinity_variance>
0.5482529402

$$$$
[H]c1nc2c([H])c(OC([H])([H])C([H])([H])C([H])([H])N3C([H])([H])C([H])([H])OC([H])([H])C3([H])[H])c(OC([H])([H])[H])c([H])c2c(Oc2c([H])c([H])c(N([H])C(=O)C3(C(=O)N([H])c4c([H])c([H])c(F)c([H])c4[H])C([H])([H])C3([H])[H])c([H])c2F)c1[H]


 48 53  0  0  0  0  0  0  0  0999 V2000
    7.7290   49.4610  129.7166 C   0  0  0  0  0  0  0  0  0  0  0  0
    7.2048   49.5095  128.4341 C   0  0  0  0  0  0  0  0  0  0  0  0
    6.9114   50.7245  127.8107 C   0  0  0  0  0  0  0  0  0  0  0  0
    7.1254   51.9339  128.4267 C   0  0  0  0  0  0  0  0  0  0  0  0
    7.6485   51.8792  129.7047 C   0  0  0  0  0  0  0  0  0  0  0  0
    7.9449   50.6684  130.3402 C   0  0  0  0  0  0  0  0  0  0  0  0
    8.4390   50.6682  131.6127 F   0  0  0  0  0  0  0  0  0  0  0  0
    6.8174   53.1827  127.8107 N   0  0  0  0  0  0  0  0  0  0  0  0
    7.6802   53.9098  126.9626 C   0  0  0  0  0  0  0  0  0  0  0  0
    8.8405   53.5493  126.6870 O   0  0  0  0  0  0  0  0  0  0  0  0
    5.8690   53.5971  127.9957 H   0  0  0  0  0  0  0  0  0  0  0  0
    7.1400   55.1809  126.3408 C   0  0  0  0  0  0  0  0  0  0  0  0
    8.1031   56.3575  126.3539 C   0  0  0  0  0  0  0  0  0  0  0  0
    6.9897   56.2655  127.3813 C   0  0  0  0  0  0  0  0  0  0  0  0
    6.1146   55.0497  125.2968 C   0  0  0  0  0  0  0  0  0  0  0  0
    5.1727   55.9452  125.2893 O   0  0  0  0  0  0  0  0  0  0  0  0
    6.0393   54.0510  124.3162 N   0  0  0  0  0  0  0  0  0  0  0  0
    6.7557   53.2618  124.3296 H   0  0  0  0  0  0  0  0  0  0  0  0
    5.0269   53.9929  123.3012 C   0  0  0  0  0  0  0  0  0  0  0  0
    3.7219   53.8903  123.6515 C   0  0  0  0  0  0  0  0  0  0  0  0
    2.7478   53.7835  122.6808 C   0  0  0  0  0  0  0  0  0  0  0  0
    3.1256   53.7824  121.3399 C   0  0  0  0  0  0  0  0  0  0  0  0
    2.2142   53.6858  120.3316 F   0  0  0  0  0  0  0  0  0  0  0  0
    4.4629   53.8875  120.9667 C   0  0  0  0  0  0  0  0  0  0  0  0
    5.3860   53.9909  121.9688 C   0  0  0  0  0  0  0  0  0  0  0  0
    7.9993   48.2164  130.2929 O   0  0  0  0  0  0  0  0  0  0  0  0
   10.4221   46.8193  133.2840 C   0  0  0  0  0  0  0  0  0  0  0  0
    9.6199   47.2790  132.2620 C   0  0  0  0  0  0  0  0  0  0  0  0
    9.8663   46.8886  130.9381 C   0  0  0  0  0  0  0  0  0  0  0  0
    9.0296   47.3721  129.9234 C   0  0  0  0  0  0  0  0  0  0  0  0
    9.2641   46.9919  128.6323 C   0  0  0  0  0  0  0  0  0  0  0  0
   10.3334   46.1351  128.3712 C   0  0  0  0  0  0  0  0  0  0  0  0
   11.1199   45.6866  129.3685 N   0  0  0  0  0  0  0  0  0  0  0  0
   10.9071   46.0437  130.6343 C   0  0  0  0  0  0  0  0  0  0  0  0
   11.7158   45.5786  131.6452 C   0  0  0  0  0  0  0  0  0  0  0  0
   11.4745   45.9602  132.9328 C   0  0  0  0  0  0  0  0  0  0  0  0
    9.3307   46.5209  135.4439 C   0  0  0  0  0  0  0  0  0  0  0  0
   10.2259   47.1652  134.5948 O   0  0  0  0  0  0  0  0  0  0  0  0
   12.3015   45.4836  133.9076 O   0  0  0  0  0  0  0  0  0  0  0  0
   12.3312   44.1332  134.3241 C   0  0  0  0  0  0  0  0  0  0  0  0
   11.0647   43.4036  133.9620 C   0  0  0  0  0  0  0  0  0  0  0  0
   11.3208   42.5545  132.7551 C   0  0  0  0  0  0  0  0  0  0  0  0
   10.1118   42.1916  132.0382 N   0  0  0  0  0  0  0  0  0  0  0  0
   10.3703   42.6048  130.6394 C   0  0  0  0  0  0  0  0  0  0  0  0
    9.1456   42.5616  129.7901 C   0  0  0  0  0  0  0  0  0  0  0  0
    7.9810   42.9826  130.4580 O   0  0  0  0  0  0  0  0  0  0  0  0
    8.3685   43.8410  131.4668 C   0  0  0  0  0  0  0  0  0  0  0  0
    9.0318   43.0256  132.5787 C   0  0  0  0  0  0  0  0  0  0  0  0
 37 38  1  0  0  0
 38 27  1  0  0  0
 27 28  2  0  0  0
 28 29  1  0  0  0
 29 30  2  0  0  0
 30 26  1  0  0  0
 26  1  1  0  0  0
  1  2  2  0  0  0
  2  3  1  0  0  0
  3  4  2  0  0  0
  4  8  1  0  0  0
  8  9  1  0  0  0
  9 10  2  0  0  0
  9 12  1  0  0  0
 12 13  1  0  0  0
 13 14  1  0  0  0
 12 15  1  0  0  0
 15 16  2  0  0  0
 15 17  1  0  0  0
 17 19  1  0  0  0
 19 20  2  0  0  0
 20 21  1  0  0  0
 21 22  2  0  0  0
 22 23  1  0  0  0
 22 24  1  0  0  0
 24 25  2  0  0  0
  4  5  1  0  0  0
  5  6  2  0  0  0
  6  7  1  0  0  0
 30 31  1  0  0  0
 31 32  2  0  0  0
 32 33  1  0  0  0
 33 34  2  0  0  0
 34 35  1  0  0  0
 35 36  2  0  0  0
 36 39  1  0  0  0
 39 40  1  0  0  0
 40 41  1  0  0  0
 41 42  1  0  0  0
 42 43  1  0  0  0
 43 44  1  0  0  0
 44 45  1  0  0  0
 45 46  1  0  0  0
 46 47  1  0  0  0
 47 48  1  0  0  0
 36 27  1  0  0  0
 48 43  1  0  0  0
 34 29  1  0  0  0
  6  1  1  0  0  0
 14 12  1  0  0  0
 25 19  1  0  0  0
  8 11  1  0  0  0
 17 18  1  0  0  0
M  END
> <minimizedAffinity>
3.07088

> <CNNscore>
0.3711976409

> <CNNaffinity>
7.7045454979

> <CNN_VS>
2.8599090576

> <CNNaffinity_variance>
0.2847693563

$$$$
[H]c1nc2c([H])c(OC([H])([H])C([H])([H])C([H])([H])N3C([H])([H])C([H])([H])OC([H])([H])C3([H])[H])c(OC([H])([H])[H])c([H])c2c(Oc2c([H])c([H])c(N([H])C(=O)C3(C(=O)N([H])c4c([H])c([H])c(F)c([H])c4[H])C([H])([H])C3([H])[H])c([H])c2F)c1[H]


 48 53  0  0  0  0  0  0  0  0999 V2000
    9.5739   45.1549  132.7162 C   0  0  0  0  0  0  0  0  0  0  0  0
    9.2377   43.8100  132.7051 C   0  0  0  0  0  0  0  0  0  0  0  0
    8.1141   43.3326  133.3838 C   0  0  0  0  0  0  0  0  0  0  0  0
    7.2813   44.1621  134.0953 C   0  0  0  0  0  0  0  0  0  0  0  0
    7.6212   45.5017  134.1023 C   0  0  0  0  0  0  0  0  0  0  0  0
    8.7449   45.9915  133.4277 C   0  0  0  0  0  0  0  0  0  0  0  0
    9.0499   47.3208  133.4850 F   0  0  0  0  0  0  0  0  0  0  0  0
    6.1390   43.6893  134.8061 N   0  0  0  0  0  0  0  0  0  0  0  0
    5.2752   44.4870  135.5871 C   0  0  0  0  0  0  0  0  0  0  0  0
    5.4443   45.7072  135.7733 O   0  0  0  0  0  0  0  0  0  0  0  0
    5.9141   42.6643  134.7417 H   0  0  0  0  0  0  0  0  0  0  0  0
    4.0669   43.8119  136.2022 C   0  0  0  0  0  0  0  0  0  0  0  0
    3.8444   44.1190  137.6747 C   0  0  0  0  0  0  0  0  0  0  0  0
    4.4880   42.8109  137.2522 C   0  0  0  0  0  0  0  0  0  0  0  0
    2.9420   43.4827  135.3162 C   0  0  0  0  0  0  0  0  0  0  0  0
    3.2193   42.7793  134.2591 O   0  0  0  0  0  0  0  0  0  0  0  0
    1.6029   43.8601  135.4857 N   0  0  0  0  0  0  0  0  0  0  0  0
    1.3462   44.4922  136.3048 H   0  0  0  0  0  0  0  0  0  0  0  0
    0.5404   43.4814  134.5991 C   0  0  0  0  0  0  0  0  0  0  0  0
    0.1411   44.3288  133.6199 C   0  0  0  0  0  0  0  0  0  0  0  0
   -0.9128   43.9922  132.7961 C   0  0  0  0  0  0  0  0  0  0  0  0
   -1.5577   42.7721  132.9863 C   0  0  0  0  0  0  0  0  0  0  0  0
   -2.6011   42.3757  132.2048 F   0  0  0  0  0  0  0  0  0  0  0  0
   -1.1570   41.8923  133.9884 C   0  0  0  0  0  0  0  0  0  0  0  0
   -0.1078   42.2760  134.7752 C   0  0  0  0  0  0  0  0  0  0  0  0
   10.7125   45.5759  132.0229 O   0  0  0  0  0  0  0  0  0  0  0  0
    8.3204   48.5880  130.6178 C   0  0  0  0  0  0  0  0  0  0  0  0
    9.1320   47.5697  131.0693 C   0  0  0  0  0  0  0  0  0  0  0  0
    9.9540   46.8698  130.1747 C   0  0  0  0  0  0  0  0  0  0  0  0
   10.7691   45.8421  130.6675 C   0  0  0  0  0  0  0  0  0  0  0  0
   11.5738   45.1594  129.8000 C   0  0  0  0  0  0  0  0  0  0  0  0
   11.5522   45.5109  128.4503 C   0  0  0  0  0  0  0  0  0  0  0  0
   10.7580   46.5042  128.0068 N   0  0  0  0  0  0  0  0  0  0  0  0
    9.9673   47.1835  128.8365 C   0  0  0  0  0  0  0  0  0  0  0  0
    9.1610   48.1970  128.3730 C   0  0  0  0  0  0  0  0  0  0  0  0
    8.3615   48.8765  129.2453 C   0  0  0  0  0  0  0  0  0  0  0  0
    7.9055   49.8490  132.6631 C   0  0  0  0  0  0  0  0  0  0  0  0
    7.5004   49.3067  131.4468 O   0  0  0  0  0  0  0  0  0  0  0  0
    7.5712   49.8712  128.7478 O   0  0  0  0  0  0  0  0  0  0  0  0
    8.0399   51.1676  128.4358 C   0  0  0  0  0  0  0  0  0  0  0  0
    6.9316   52.0674  127.9567 C   0  0  0  0  0  0  0  0  0  0  0  0
    7.1070   53.4232  128.5686 C   0  0  0  0  0  0  0  0  0  0  0  0
    7.0838   54.5016  127.5972 N   0  0  0  0  0  0  0  0  0  0  0  0
    6.1163   54.0550  126.5683 C   0  0  0  0  0  0  0  0  0  0  0  0
    6.1454   54.9038  125.3428 C   0  0  0  0  0  0  0  0  0  0  0  0
    7.4379   55.3222  124.9772 O   0  0  0  0  0  0  0  0  0  0  0  0
    8.3303   54.3925  125.4711 C   0  0  0  0  0  0  0  0  0  0  0  0
    8.4189   54.5543  126.9900 C   0  0  0  0  0  0  0  0  0  0  0  0
 37 38  1  0  0  0
 38 27  1  0  0  0
 27 28  2  0  0  0
 28 29  1  0  0  0
 29 30  2  0  0  0
 30 26  1  0  0  0
 26  1  1  0  0  0
  1  2  2  0  0  0
  2  3  1  0  0  0
  3  4  2  0  0  0
  4  8  1  0  0  0
  8  9  1  0  0  0
  9 10  2  0  0  0
  9 12  1  0  0  0
 12 13  1  0  0  0
 13 14  1  0  0  0
 12 15  1  0  0  0
 15 16  2  0  0  0
 15 17  1  0  0  0
 17 19  1  0  0  0
 19 20  2  0  0  0
 20 21  1  0  0  0
 21 22  2  0  0  0
 22 23  1  0  0  0
 22 24  1  0  0  0
 24 25  2  0  0  0
  4  5  1  0  0  0
  5  6  2  0  0  0
  6  7  1  0  0  0
 30 31  1  0  0  0
 31 32  2  0  0  0
 32 33  1  0  0  0
 33 34  2  0  0  0
 34 35  1  0  0  0
 35 36  2  0  0  0
 36 39  1  0  0  0
 39 40  1  0  0  0
 40 41  1  0  0  0
 41 42  1  0  0  0
 42 43  1  0  0  0
 43 44  1  0  0  0
 44 45  1  0  0  0
 45 46  1  0  0  0
 46 47  1  0  0  0
 47 48  1  0  0  0
 36 27  1  0  0  0
 48 43  1  0  0  0
 34 29  1  0  0  0
  6  1  1  0  0  0
 14 12  1  0  0  0
 25 19  1  0  0  0
  8 11  1  0  0  0
 17 18  1  0  0  0
M  END
> <minimizedAffinity>
50.62194

> <CNNscore>
0.3681820929

> <CNNaffinity>
7.3240165710

> <CNN_VS>
2.6965718269

> <CNNaffinity_variance>
0.7106595039

$$$$
[H]c1nc2c([H])c(OC([H])([H])C([H])([H])C([H])([H])N3C([H])([H])C([H])([H])OC([H])([H])C3([H])[H])c(OC([H])([H])[H])c([H])c2c(Oc2c([H])c([H])c(N([H])C(=O)C3(C(=O)N([H])c4c([H])c([H])c(F)c([H])c4[H])C([H])([H])C3([H])[H])c([H])c2F)c1[H]


 48 53  0  0  0  0  0  0  0  0999 V2000
    7.6585   49.5027  129.7299 C   0  0  0  0  0  0  0  0  0  0  0  0
    7.2031   49.4747  128.4208 C   0  0  0  0  0  0  0  0  0  0  0  0
    6.9050   50.6493  127.7261 C   0  0  0  0  0  0  0  0  0  0  0  0
    7.0465   51.8920  128.2947 C   0  0  0  0  0  0  0  0  0  0  0  0
    7.5012   51.9137  129.5996 C   0  0  0  0  0  0  0  0  0  0  0  0
    7.8016   50.7440  130.3062 C   0  0  0  0  0  0  0  0  0  0  0  0
    8.2259   50.8188  131.6015 F   0  0  0  0  0  0  0  0  0  0  0  0
    6.7324   53.1001  127.6051 N   0  0  0  0  0  0  0  0  0  0  0  0
    7.6753   54.0036  127.0693 C   0  0  0  0  0  0  0  0  0  0  0  0
    8.9079   53.8579  127.1775 O   0  0  0  0  0  0  0  0  0  0  0  0
    5.7165   53.3391  127.4776 H   0  0  0  0  0  0  0  0  0  0  0  0
    7.1423   55.1947  126.3004 C   0  0  0  0  0  0  0  0  0  0  0  0
    8.1170   56.3536  126.1623 C   0  0  0  0  0  0  0  0  0  0  0  0
    7.0115   56.4001  127.2014 C   0  0  0  0  0  0  0  0  0  0  0  0
    6.1068   54.9479  125.2877 C   0  0  0  0  0  0  0  0  0  0  0  0
    4.9414   55.4808  125.5041 O   0  0  0  0  0  0  0  0  0  0  0  0
    6.2417   54.1858  124.1191 N   0  0  0  0  0  0  0  0  0  0  0  0
    7.1618   53.6788  123.9388 H   0  0  0  0  0  0  0  0  0  0  0  0
    5.1993   54.0054  123.1499 C   0  0  0  0  0  0  0  0  0  0  0  0
    5.4960   54.0088  121.8277 C   0  0  0  0  0  0  0  0  0  0  0  0
    4.4923   53.8861  120.8895 C   0  0  0  0  0  0  0  0  0  0  0  0
    3.1739   53.7594  121.3214 C   0  0  0  0  0  0  0  0  0  0  0  0
    2.1361   53.6287  120.4483 F   0  0  0  0  0  0  0  0  0  0  0  0
    2.8557   53.7541  122.6769 C   0  0  0  0  0  0  0  0  0  0  0  0
    3.8887   53.8786  123.5627 C   0  0  0  0  0  0  0  0  0  0  0  0
    7.9370   48.2957  130.3779 O   0  0  0  0  0  0  0  0  0  0  0  0
    8.0891   44.8400  132.5697 C   0  0  0  0  0  0  0  0  0  0  0  0
    8.0514   45.9934  131.8162 C   0  0  0  0  0  0  0  0  0  0  0  0
    8.6749   46.0402  130.5613 C   0  0  0  0  0  0  0  0  0  0  0  0
    8.6149   47.2278  129.8200 C   0  0  0  0  0  0  0  0  0  0  0  0
    9.2184   47.2770  128.5955 C   0  0  0  0  0  0  0  0  0  0  0  0
    9.8765   46.1393  128.1280 C   0  0  0  0  0  0  0  0  0  0  0  0
    9.9164   45.0120  128.8639 N   0  0  0  0  0  0  0  0  0  0  0  0
    9.3326   44.9425  130.0595 C   0  0  0  0  0  0  0  0  0  0  0  0
    9.3785   43.7855  130.8021 C   0  0  0  0  0  0  0  0  0  0  0  0
    8.7714   43.7424  132.0233 C   0  0  0  0  0  0  0  0  0  0  0  0
    7.4579   45.7676  134.7344 C   0  0  0  0  0  0  0  0  0  0  0  0
    7.4952   44.7369  133.7997 O   0  0  0  0  0  0  0  0  0  0  0  0
    8.8433   42.5797  132.7334 O   0  0  0  0  0  0  0  0  0  0  0  0
    9.9961   42.1530  133.4311 C   0  0  0  0  0  0  0  0  0  0  0  0
   11.1858   43.0303  133.1435 C   0  0  0  0  0  0  0  0  0  0  0  0
   11.5509   43.7781  134.3888 C   0  0  0  0  0  0  0  0  0  0  0  0
   11.9385   45.1551  134.1418 N   0  0  0  0  0  0  0  0  0  0  0  0
   10.6852   45.9286  134.3002 C   0  0  0  0  0  0  0  0  0  0  0  0
   10.8132   47.3364  133.8259 C   0  0  0  0  0  0  0  0  0  0  0  0
   11.5968   47.4715  132.6653 O   0  0  0  0  0  0  0  0  0  0  0  0
   11.5346   46.2746  131.9810 C   0  0  0  0  0  0  0  0  0  0  0  0
   12.3596   45.2318  132.7380 C   0  0  0  0  0  0  0  0  0  0  0  0
 37 38  1  0  0  0
 38 27  1  0  0  0
 27 28  2  0  0  0
 28 29  1  0  0  0
 29 30  2  0  0  0
 30 26  1  0  0  0
 26  1  1  0  0  0
  1  2  2  0  0  0
  2  3  1  0  0  0
  3  4  2  0  0  0
  4  8  1  0  0  0
  8  9  1  0  0  0
  9 10  2  0  0  0
  9 12  1  0  0  0
 12 13  1  0  0  0
 13 14  1  0  0  0
 12 15  1  0  0  0
 15 16  2  0  0  0
 15 17  1  0  0  0
 17 19  1  0  0  0
 19 20  2  0  0  0
 20 21  1  0  0  0
 21 22  2  0  0  0
 22 23  1  0  0  0
 22 24  1  0  0  0
 24 25  2  0  0  0
  4  5  1  0  0  0
  5  6  2  0  0  0
  6  7  1  0  0  0
 30 31  1  0  0  0
 31 32  2  0  0  0
 32 33  1  0  0  0
 33 34  2  0  0  0
 34 35  1  0  0  0
 35 36  2  0  0  0
 36 39  1  0  0  0
 39 40  1  0  0  0
 40 41  1  0  0  0
 41 42  1  0  0  0
 42 43  1  0  0  0
 43 44  1  0  0  0
 44 45  1  0  0  0
 45 46  1  0  0  0
 46 47  1  0  0  0
 47 48  1  0  0  0
 36 27  1  0  0  0
 48 43  1  0  0  0
 34 29  1  0  0  0
  6  1  1  0  0  0
 14 12  1  0  0  0
 25 19  1  0  0  0
  8 11  1  0  0  0
 17 18  1  0  0  0
M  END
> <minimizedAffinity>
5.30240

> <CNNscore>
0.3405356705

> <CNNaffinity>
7.5086007118

> <CNN_VS>
2.5569462776

> <CNNaffinity_variance>
0.3714475036

$$$$
[H]c1nc2c([H])c(OC([H])([H])C([H])([H])C([H])([H])N3C([H])([H])C([H])([H])OC([H])([H])C3([H])[H])c(OC([H])([H])[H])c([H])c2c(Oc2c([H])c([H])c(N([H])C(=O)C3(C(=O)N([H])c4c([H])c([H])c(F)c([H])c4[H])C([H])([H])C3([H])[H])c([H])c2F)c1[H]


 48 53  0  0  0  0  0  0  0  0999 V2000
    7.3743   49.9903  129.8076 C   0  0  0  0  0  0  0  0  0  0  0  0
    7.1725   51.2553  130.3377 C   0  0  0  0  0  0  0  0  0  0  0  0
    7.0118   52.3739  129.5168 C   0  0  0  0  0  0  0  0  0  0  0  0
    7.0421   52.2864  128.1459 C   0  0  0  0  0  0  0  0  0  0  0  0
    7.2432   51.0229  127.6233 C   0  0  0  0  0  0  0  0  0  0  0  0
    7.4070   49.8953  128.4353 C   0  0  0  0  0  0  0  0  0  0  0  0
    7.6259   48.6724  127.8693 F   0  0  0  0  0  0  0  0  0  0  0  0
    6.8950   53.4202  127.2935 N   0  0  0  0  0  0  0  0  0  0  0  0
    7.7436   54.5480  127.2806 C   0  0  0  0  0  0  0  0  0  0  0  0
    8.7088   54.6929  128.0549 O   0  0  0  0  0  0  0  0  0  0  0  0
    6.0935   53.4181  126.6129 H   0  0  0  0  0  0  0  0  0  0  0  0
    7.4677   55.6176  126.2444 C   0  0  0  0  0  0  0  0  0  0  0  0
    8.6534   56.5122  125.9187 C   0  0  0  0  0  0  0  0  0  0  0  0
    7.5623   56.9953  126.8568 C   0  0  0  0  0  0  0  0  0  0  0  0
    6.4200   55.3521  125.2490 C   0  0  0  0  0  0  0  0  0  0  0  0
    5.4393   56.2031  125.1941 O   0  0  0  0  0  0  0  0  0  0  0  0
    6.3618   54.2687  124.3617 N   0  0  0  0  0  0  0  0  0  0  0  0
    7.1128   53.5145  124.4205 H   0  0  0  0  0  0  0  0  0  0  0  0
    5.3248   54.0789  123.3885 C   0  0  0  0  0  0  0  0  0  0  0  0
    4.0354   53.9585  123.7877 C   0  0  0  0  0  0  0  0  0  0  0  0
    3.0398   53.7258  122.8617 C   0  0  0  0  0  0  0  0  0  0  0  0
    3.3797   53.6167  121.5152 C   0  0  0  0  0  0  0  0  0  0  0  0
    2.4454   53.3932  120.5490 F   0  0  0  0  0  0  0  0  0  0  0  0
    4.7006   53.7389  121.0920 C   0  0  0  0  0  0  0  0  0  0  0  0
    5.6463   53.9691  122.0511 C   0  0  0  0  0  0  0  0  0  0  0  0
    7.5335   48.9073  130.6770 O   0  0  0  0  0  0  0  0  0  0  0  0
    9.9095   45.7163  129.7068 C   0  0  0  0  0  0  0  0  0  0  0  0
    9.1228   46.7941  130.0518 C   0  0  0  0  0  0  0  0  0  0  0  0
    9.4581   47.5911  131.1555 C   0  0  0  0  0  0  0  0  0  0  0  0
    8.6382   48.6811  131.4768 C   0  0  0  0  0  0  0  0  0  0  0  0
    8.9627   49.4622  132.5496 C   0  0  0  0  0  0  0  0  0  0  0  0
   10.1014   49.1428  133.2893 C   0  0  0  0  0  0  0  0  0  0  0  0
   10.8702   48.0886  132.9550 N   0  0  0  0  0  0  0  0  0  0  0  0
   10.5724   47.3155  131.9116 C   0  0  0  0  0  0  0  0  0  0  0  0
   11.3654   46.2420  131.5785 C   0  0  0  0  0  0  0  0  0  0  0  0
   11.0369   45.4674  130.5043 C   0  0  0  0  0  0  0  0  0  0  0  0
    8.8512   43.7562  128.7153 C   0  0  0  0  0  0  0  0  0  0  0  0
    9.6315   44.9062  128.6378 O   0  0  0  0  0  0  0  0  0  0  0  0
   11.8437   44.4078  130.2083 O   0  0  0  0  0  0  0  0  0  0  0  0
   11.5656   43.0755  130.5898 C   0  0  0  0  0  0  0  0  0  0  0  0
   11.4520   42.9293  132.0842 C   0  0  0  0  0  0  0  0  0  0  0  0
   10.0353   42.5913  132.4334 C   0  0  0  0  0  0  0  0  0  0  0  0
    9.5577   43.2692  133.6250 N   0  0  0  0  0  0  0  0  0  0  0  0
    8.8221   44.4484  133.1126 C   0  0  0  0  0  0  0  0  0  0  0  0
    8.4775   45.4238  134.1864 C   0  0  0  0  0  0  0  0  0  0  0  0
    9.4852   45.5739  135.1566 O   0  0  0  0  0  0  0  0  0  0  0  0
   10.6873   45.2533  134.5593 C   0  0  0  0  0  0  0  0  0  0  0  0
   10.7441   43.7386  134.3501 C   0  0  0  0  0  0  0  0  0  0  0  0
 37 38  1  0  0  0
 38 27  1  0  0  0
 27 28  2  0  0  0
 28 29  1  0  0  0
 29 30  2  0  0  0
 30 26  1  0  0  0
 26  1  1  0  0  0
  1  2  2  0  0  0
  2  3  1  0  0  0
  3  4  2  0  0  0
  4  8  1  0  0  0
  8  9  1  0  0  0
  9 10  2  0  0  0
  9 12  1  0  0  0
 12 13  1  0  0  0
 13 14  1  0  0  0
 12 15  1  0  0  0
 15 16  2  0  0  0
 15 17  1  0  0  0
 17 19  1  0  0  0
 19 20  2  0  0  0
 20 21  1  0  0  0
 21 22  2  0  0  0
 22 23  1  0  0  0
 22 24  1  0  0  0
 24 25  2  0  0  0
  4  5  1  0  0  0
  5  6  2  0  0  0
  6  7  1  0  0  0
 30 31  1  0  0  0
 31 32  2  0  0  0
 32 33  1  0  0  0
 33 34  2  0  0  0
 34 35  1  0  0  0
 35 36  2  0  0  0
 36 39  1  0  0  0
 39 40  1  0  0  0
 40 41  1  0  0  0
 41 42  1  0  0  0
 42 43  1  0  0  0
 43 44  1  0  0  0
 44 45  1  0  0  0
 45 46  1  0  0  0
 46 47  1  0  0  0
 47 48  1  0  0  0
 36 27  1  0  0  0
 48 43  1  0  0  0
 34 29  1  0  0  0
  6  1  1  0  0  0
 14 12  1  0  0  0
 25 19  1  0  0  0
  8 11  1  0  0  0
 17 18  1  0  0  0
M  END
> <minimizedAffinity>
0.92456

> <CNNscore>
0.3299359381

> <CNNaffinity>
7.5370087624

> <CNN_VS>
2.4867300987

> <CNNaffinity_variance>
0.7255057096

$$$$
[H]c1nc2c([H])c(OC([H])([H])C([H])([H])C([H])([H])N3C([H])([H])C([H])([H])OC([H])([H])C3([H])[H])c(OC([H])([H])[H])c([H])c2c(Oc2c([H])c([H])c(N([H])C(=O)C3(C(=O)N([H])c4c([H])c([H])c(F)c([H])c4[H])C([H])([H])C3([H])[H])c([H])c2F)c1[H]


 48 53  0  0  0  0  0  0  0  0999 V2000
    7.7160   49.4695  129.5391 C   0  0  0  0  0  0  0  0  0  0  0  0
    8.0301   50.6693  130.1584 C   0  0  0  0  0  0  0  0  0  0  0  0
    7.7980   51.8966  129.5331 C   0  0  0  0  0  0  0  0  0  0  0  0
    7.2472   51.9858  128.2775 C   0  0  0  0  0  0  0  0  0  0  0  0
    6.9358   50.7866  127.6653 C   0  0  0  0  0  0  0  0  0  0  0  0
    7.1650   49.5511  128.2809 C   0  0  0  0  0  0  0  0  0  0  0  0
    6.8606   48.3940  127.6238 F   0  0  0  0  0  0  0  0  0  0  0  0
    7.0176   53.2295  127.6185 N   0  0  0  0  0  0  0  0  0  0  0  0
    7.8191   53.7686  126.5893 C   0  0  0  0  0  0  0  0  0  0  0  0
    8.8551   53.2222  126.1648 O   0  0  0  0  0  0  0  0  0  0  0  0
    6.1806   53.7921  127.9161 H   0  0  0  0  0  0  0  0  0  0  0  0
    7.3649   55.0690  125.9592 C   0  0  0  0  0  0  0  0  0  0  0  0
    7.9686   55.3625  124.5948 C   0  0  0  0  0  0  0  0  0  0  0  0
    8.5174   56.0380  125.8383 C   0  0  0  0  0  0  0  0  0  0  0  0
    6.0394   55.5829  126.3302 C   0  0  0  0  0  0  0  0  0  0  0  0
    5.0538   54.7367  126.2889 O   0  0  0  0  0  0  0  0  0  0  0  0
    5.7252   56.8947  126.7110 N   0  0  0  0  0  0  0  0  0  0  0  0
    6.4936   57.6334  126.6940 H   0  0  0  0  0  0  0  0  0  0  0  0
    4.4126   57.3307  127.0923 C   0  0  0  0  0  0  0  0  0  0  0  0
    4.2385   58.0328  128.2382 C   0  0  0  0  0  0  0  0  0  0  0  0
    2.9733   58.4116  128.6361 C   0  0  0  0  0  0  0  0  0  0  0  0
    1.8816   58.0619  127.8445 C   0  0  0  0  0  0  0  0  0  0  0  0
    0.6066   58.4092  128.1763 F   0  0  0  0  0  0  0  0  0  0  0  0
    2.0469   57.3411  126.6647 C   0  0  0  0  0  0  0  0  0  0  0  0
    3.3217   56.9920  126.3181 C   0  0  0  0  0  0  0  0  0  0  0  0
    7.9743   48.2708  130.2105 O   0  0  0  0  0  0  0  0  0  0  0  0
   10.2593   46.9536  133.3430 C   0  0  0  0  0  0  0  0  0  0  0  0
    9.5038   47.3856  132.2743 C   0  0  0  0  0  0  0  0  0  0  0  0
    9.7911   46.9378  130.9771 C   0  0  0  0  0  0  0  0  0  0  0  0
    9.0013   47.3945  129.9135 C   0  0  0  0  0  0  0  0  0  0  0  0
    9.2757   46.9585  128.6482 C   0  0  0  0  0  0  0  0  0  0  0  0
   10.3374   46.0732  128.4614 C   0  0  0  0  0  0  0  0  0  0  0  0
   11.0782   45.6517  129.5043 N   0  0  0  0  0  0  0  0  0  0  0  0
   10.8261   46.0633  130.7461 C   0  0  0  0  0  0  0  0  0  0  0  0
   11.5884   45.6254  131.8041 C   0  0  0  0  0  0  0  0  0  0  0  0
   11.3073   46.0628  133.0657 C   0  0  0  0  0  0  0  0  0  0  0  0
    9.1190   46.7312  135.4868 C   0  0  0  0  0  0  0  0  0  0  0  0
   10.0217   47.3555  134.6308 O   0  0  0  0  0  0  0  0  0  0  0  0
   12.0889   45.6116  134.0889 O   0  0  0  0  0  0  0  0  0  0  0  0
   12.2654   44.2444  134.4010 C   0  0  0  0  0  0  0  0  0  0  0  0
   11.0667   43.4188  134.0151 C   0  0  0  0  0  0  0  0  0  0  0  0
   11.3673   42.6909  132.7411 C   0  0  0  0  0  0  0  0  0  0  0  0
   10.1787   42.2410  132.0397 N   0  0  0  0  0  0  0  0  0  0  0  0
   10.4137   42.6211  130.6274 C   0  0  0  0  0  0  0  0  0  0  0  0
    9.1922   42.4851  129.7832 C   0  0  0  0  0  0  0  0  0  0  0  0
    8.0076   42.8655  130.4399 O   0  0  0  0  0  0  0  0  0  0  0  0
    8.3498   43.7759  131.4189 C   0  0  0  0  0  0  0  0  0  0  0  0
    9.0564   43.0339  132.5553 C   0  0  0  0  0  0  0  0  0  0  0  0
 37 38  1  0  0  0
 38 27  1  0  0  0
 27 28  2  0  0  0
 28 29  1  0  0  0
 29 30  2  0  0  0
 30 26  1  0  0  0
 26  1  1  0  0  0
  1  2  2  0  0  0
  2  3  1  0  0  0
  3  4  2  0  0  0
  4  8  1  0  0  0
  8  9  1  0  0  0
  9 10  2  0  0  0
  9 12  1  0  0  0
 12 13  1  0  0  0
 13 14  1  0  0  0
 12 15  1  0  0  0
 15 16  2  0  0  0
 15 17  1  0  0  0
 17 19  1  0  0  0
 19 20  2  0  0  0
 20 21  1  0  0  0
 21 22  2  0  0  0
 22 23  1  0  0  0
 22 24  1  0  0  0
 24 25  2  0  0  0
  4  5  1  0  0  0
  5  6  2  0  0  0
  6  7  1  0  0  0
 30 31  1  0  0  0
 31 32  2  0  0  0
 32 33  1  0  0  0
 33 34  2  0  0  0
 34 35  1  0  0  0
 35 36  2  0  0  0
 36 39  1  0  0  0
 39 40  1  0  0  0
 40 41  1  0  0  0
 41 42  1  0  0  0
 42 43  1  0  0  0
 43 44  1  0  0  0
 44 45  1  0  0  0
 45 46  1  0  0  0
 46 47  1  0  0  0
 47 48  1  0  0  0
 36 27  1  0  0  0
 48 43  1  0  0  0
 34 29  1  0  0  0
  6  1  1  0  0  0
 14 12  1  0  0  0
 25 19  1  0  0  0
  8 11  1  0  0  0
 17 18  1  0  0  0
M  END
> <minimizedAffinity>
1.51554

> <CNNscore>
0.3244699538

> <CNNaffinity>
7.6121010780

> <CNN_VS>
2.4698979855

> <CNNaffinity_variance>
0.1526628435

$$$$
[H]c1nc2c([H])c(OC([H])([H])C([H])([H])C([H])([H])N3C([H])([H])C([H])([H])OC([H])([H])C3([H])[H])c(OC([H])([H])[H])c([H])c2c(Oc2c([H])c([H])c(N([H])C(=O)C3(C(=O)N([H])c4c([H])c([H])c(F)c([H])c4[H])C([H])([H])C3([H])[H])c([H])c2F)c1[H]


 48 53  0  0  0  0  0  0  0  0999 V2000
   11.9385   44.5277  134.0075 C   0  0  0  0  0  0  0  0  0  0  0  0
   13.3193   44.4573  134.1090 C   0  0  0  0  0  0  0  0  0  0  0  0
   13.9408   43.8348  135.1941 C   0  0  0  0  0  0  0  0  0  0  0  0
   13.2253   43.2583  136.2157 C   0  0  0  0  0  0  0  0  0  0  0  0
   11.8494   43.3313  136.1087 C   0  0  0  0  0  0  0  0  0  0  0  0
   11.2154   43.9535  135.0276 C   0  0  0  0  0  0  0  0  0  0  0  0
    9.8527   44.0188  134.9807 F   0  0  0  0  0  0  0  0  0  0  0  0
   13.8437   42.6323  137.3379 N   0  0  0  0  0  0  0  0  0  0  0  0
   15.2337   42.4620  137.5148 C   0  0  0  0  0  0  0  0  0  0  0  0
   16.0836   42.8135  136.6743 O   0  0  0  0  0  0  0  0  0  0  0  0
   13.2176   42.2715  138.1015 H   0  0  0  0  0  0  0  0  0  0  0  0
   15.7012   41.8414  138.8150 C   0  0  0  0  0  0  0  0  0  0  0  0
   15.2882   42.5973  140.0681 C   0  0  0  0  0  0  0  0  0  0  0  0
   16.6935   42.7414  139.5130 C   0  0  0  0  0  0  0  0  0  0  0  0
   15.9180   40.3885  138.8408 C   0  0  0  0  0  0  0  0  0  0  0  0
   15.8199   39.8050  139.9980 O   0  0  0  0  0  0  0  0  0  0  0  0
   16.2332   39.5683  137.7487 N   0  0  0  0  0  0  0  0  0  0  0  0
   16.3867   40.0183  136.7947 H   0  0  0  0  0  0  0  0  0  0  0  0
   16.4041   38.1462  137.8318 C   0  0  0  0  0  0  0  0  0  0  0  0
   17.6463   37.6086  137.7668 C   0  0  0  0  0  0  0  0  0  0  0  0
   17.8139   36.2397  137.7955 C   0  0  0  0  0  0  0  0  0  0  0  0
   16.6901   35.4221  137.8917 C   0  0  0  0  0  0  0  0  0  0  0  0
   16.7852   34.0634  137.9306 F   0  0  0  0  0  0  0  0  0  0  0  0
   15.4084   35.9618  137.9596 C   0  0  0  0  0  0  0  0  0  0  0  0
   15.3003   37.3236  137.9273 C   0  0  0  0  0  0  0  0  0  0  0  0
   11.3709   45.1669  132.9014 O   0  0  0  0  0  0  0  0  0  0  0  0
    9.4119   48.0060  130.6943 C   0  0  0  0  0  0  0  0  0  0  0  0
   10.0544   47.0357  131.4327 C   0  0  0  0  0  0  0  0  0  0  0  0
    9.5312   45.7368  131.5027 C   0  0  0  0  0  0  0  0  0  0  0  0
   10.2112   44.7736  132.2600 C   0  0  0  0  0  0  0  0  0  0  0  0
    9.7067   43.5059  132.3286 C   0  0  0  0  0  0  0  0  0  0  0  0
    8.5275   43.2173  131.6414 C   0  0  0  0  0  0  0  0  0  0  0  0
    7.8970   44.1648  130.9212 N   0  0  0  0  0  0  0  0  0  0  0  0
    8.3733   45.4064  130.8398 C   0  0  0  0  0  0  0  0  0  0  0  0
    7.7219   46.3660  130.1002 C   0  0  0  0  0  0  0  0  0  0  0  0
    8.2326   47.6296  130.0338 C   0  0  0  0  0  0  0  0  0  0  0  0
   10.8950   49.6781  129.7197 C   0  0  0  0  0  0  0  0  0  0  0  0
    9.8792   49.2892  130.5883 O   0  0  0  0  0  0  0  0  0  0  0  0
    7.5555   48.5559  129.2957 O   0  0  0  0  0  0  0  0  0  0  0  0
    6.9090   49.6843  129.8494 C   0  0  0  0  0  0  0  0  0  0  0  0
    7.5385   50.9743  129.3941 C   0  0  0  0  0  0  0  0  0  0  0  0
    6.6628   51.6020  128.3537 C   0  0  0  0  0  0  0  0  0  0  0  0
    6.9310   53.0140  128.1496 N   0  0  0  0  0  0  0  0  0  0  0  0
    5.8456   53.4731  127.2522 C   0  0  0  0  0  0  0  0  0  0  0  0
    6.0888   54.8389  126.7057 C   0  0  0  0  0  0  0  0  0  0  0  0
    7.4362   55.0865  126.3854 O   0  0  0  0  0  0  0  0  0  0  0  0
    8.0282   53.8701  126.1127 C   0  0  0  0  0  0  0  0  0  0  0  0
    8.2042   53.1035  127.4251 C   0  0  0  0  0  0  0  0  0  0  0  0
 37 38  1  0  0  0
 38 27  1  0  0  0
 27 28  2  0  0  0
 28 29  1  0  0  0
 29 30  2  0  0  0
 30 26  1  0  0  0
 26  1  1  0  0  0
  1  2  2  0  0  0
  2  3  1  0  0  0
  3  4  2  0  0  0
  4  8  1  0  0  0
  8  9  1  0  0  0
  9 10  2  0  0  0
  9 12  1  0  0  0
 12 13  1  0  0  0
 13 14  1  0  0  0
 12 15  1  0  0  0
 15 16  2  0  0  0
 15 17  1  0  0  0
 17 19  1  0  0  0
 19 20  2  0  0  0
 20 21  1  0  0  0
 21 22  2  0  0  0
 22 23  1  0  0  0
 22 24  1  0  0  0
 24 25  2  0  0  0
  4  5  1  0  0  0
  5  6  2  0  0  0
  6  7  1  0  0  0
 30 31  1  0  0  0
 31 32  2  0  0  0
 32 33  1  0  0  0
 33 34  2  0  0  0
 34 35  1  0  0  0
 35 36  2  0  0  0
 36 39  1  0  0  0
 39 40  1  0  0  0
 40 41  1  0  0  0
 41 42  1  0  0  0
 42 43  1  0  0  0
 43 44  1  0  0  0
 44 45  1  0  0  0
 45 46  1  0  0  0
 46 47  1  0  0  0
 47 48  1  0  0  0
 36 27  1  0  0  0
 48 43  1  0  0  0
 34 29  1  0  0  0
  6  1  1  0  0  0
 14 12  1  0  0  0
 25 19  1  0  0  0
  8 11  1  0  0  0
 17 18  1  0  0  0
M  END
> <minimizedAffinity>
17.99183

> <CNNscore>
0.3112111092

> <CNNaffinity>
7.4030332565

> <CNN_VS>
2.3039062023

> <CNNaffinity_variance>
0.1230553389

$$$$
[H]c1nc2c([H])c(OC([H])([H])C([H])([H])C([H])([H])N3C([H])([H])C([H])([H])OC([H])([H])C3([H])[H])c(OC([H])([H])[H])c([H])c2c(Oc2c([H])c([H])c(N([H])C(=O)C3(C(=O)N([H])c4c([H])c([H])c(F)c([H])c4[H])C([H])([H])C3([H])[H])c([H])c2F)c1[H]


 48 53  0  0  0  0  0  0  0  0999 V2000
   11.6462   45.1409  133.8392 C   0  0  0  0  0  0  0  0  0  0  0  0
   12.8546   45.7788  134.0728 C   0  0  0  0  0  0  0  0  0  0  0  0
   13.8912   45.1485  134.7651 C   0  0  0  0  0  0  0  0  0  0  0  0
   13.7754   43.8681  135.2497 C   0  0  0  0  0  0  0  0  0  0  0  0
   12.5688   43.2371  135.0135 C   0  0  0  0  0  0  0  0  0  0  0  0
   11.5226   43.8586  134.3228 C   0  0  0  0  0  0  0  0  0  0  0  0
   10.3417   43.1999  134.1356 F   0  0  0  0  0  0  0  0  0  0  0  0
   14.8179   43.2153  135.9715 N   0  0  0  0  0  0  0  0  0  0  0  0
   14.6732   42.5896  137.2284 C   0  0  0  0  0  0  0  0  0  0  0  0
   13.6063   42.5740  137.8717 O   0  0  0  0  0  0  0  0  0  0  0  0
   15.7732   43.1903  135.5330 H   0  0  0  0  0  0  0  0  0  0  0  0
   15.8836   41.8799  137.7986 C   0  0  0  0  0  0  0  0  0  0  0  0
   16.8192   42.7634  138.6086 C   0  0  0  0  0  0  0  0  0  0  0  0
   17.1558   42.4020  137.1734 C   0  0  0  0  0  0  0  0  0  0  0  0
   15.7659   40.4419  138.0765 C   0  0  0  0  0  0  0  0  0  0  0  0
   14.7800   40.0747  138.8397 O   0  0  0  0  0  0  0  0  0  0  0  0
   16.6147   39.4265  137.6150 N   0  0  0  0  0  0  0  0  0  0  0  0
   17.4720   39.6939  137.0407 H   0  0  0  0  0  0  0  0  0  0  0  0
   16.4301   38.0318  137.8967 C   0  0  0  0  0  0  0  0  0  0  0  0
   17.4950   37.1937  137.8938 C   0  0  0  0  0  0  0  0  0  0  0  0
   17.3179   35.8437  138.1143 C   0  0  0  0  0  0  0  0  0  0  0  0
   16.0318   35.3575  138.3388 C   0  0  0  0  0  0  0  0  0  0  0  0
   15.7876   34.0369  138.5688 F   0  0  0  0  0  0  0  0  0  0  0  0
   14.9294   36.2080  138.3448 C   0  0  0  0  0  0  0  0  0  0  0  0
   15.1622   37.5357  138.1211 C   0  0  0  0  0  0  0  0  0  0  0  0
   10.6421   45.8218  133.1446 O   0  0  0  0  0  0  0  0  0  0  0  0
    8.2899   47.4257  130.2012 C   0  0  0  0  0  0  0  0  0  0  0  0
    9.0854   46.9069  131.2000 C   0  0  0  0  0  0  0  0  0  0  0  0
    9.6242   47.7472  132.1845 C   0  0  0  0  0  0  0  0  0  0  0  0
   10.4264   47.1867  133.1873 C   0  0  0  0  0  0  0  0  0  0  0  0
   10.9511   48.0012  134.1504 C   0  0  0  0  0  0  0  0  0  0  0  0
   10.6692   49.3664  134.0979 C   0  0  0  0  0  0  0  0  0  0  0  0
    9.8938   49.8755  133.1213 N   0  0  0  0  0  0  0  0  0  0  0  0
    9.3710   49.0982  132.1739 C   0  0  0  0  0  0  0  0  0  0  0  0
    8.5794   49.6287  131.1819 C   0  0  0  0  0  0  0  0  0  0  0  0
    8.0565   48.8091  130.2244 C   0  0  0  0  0  0  0  0  0  0  0  0
    6.3667   46.5562  128.9802 C   0  0  0  0  0  0  0  0  0  0  0  0
    7.7351   46.6517  129.2166 O   0  0  0  0  0  0  0  0  0  0  0  0
    7.2813   49.3721  129.2532 O   0  0  0  0  0  0  0  0  0  0  0  0
    6.8633   50.7223  129.2635 C   0  0  0  0  0  0  0  0  0  0  0  0
    7.5926   51.5459  128.2352 C   0  0  0  0  0  0  0  0  0  0  0  0
    6.7067   52.6709  127.7959 C   0  0  0  0  0  0  0  0  0  0  0  0
    7.4399   53.8387  127.3421 N   0  0  0  0  0  0  0  0  0  0  0  0
    6.3906   54.8243  126.9928 C   0  0  0  0  0  0  0  0  0  0  0  0
    6.9291   56.0012  126.2525 C   0  0  0  0  0  0  0  0  0  0  0  0
    7.9396   55.6732  125.3303 O   0  0  0  0  0  0  0  0  0  0  0  0
    7.7449   54.3609  124.9504 C   0  0  0  0  0  0  0  0  0  0  0  0
    8.1407   53.4484  126.1132 C   0  0  0  0  0  0  0  0  0  0  0  0
 37 38  1  0  0  0
 38 27  1  0  0  0
 27 28  2  0  0  0
 28 29  1  0  0  0
 29 30  2  0  0  0
 30 26  1  0  0  0
 26  1  1  0  0  0
  1  2  2  0  0  0
  2  3  1  0  0  0
  3  4  2  0  0  0
  4  8  1  0  0  0
  8  9  1  0  0  0
  9 10  2  0  0  0
  9 12  1  0  0  0
 12 13  1  0  0  0
 13 14  1  0  0  0
 12 15  1  0  0  0
 15 16  2  0  0  0
 15 17  1  0  0  0
 17 19  1  0  0  0
 19 20  2  0  0  0
 20 21  1  0  0  0
 21 22  2  0  0  0
 22 23  1  0  0  0
 22 24  1  0  0  0
 24 25  2  0  0  0
  4  5  1  0  0  0
  5  6  2  0  0  0
  6  7  1  0  0  0
 30 31  1  0  0  0
 31 32  2  0  0  0
 32 33  1  0  0  0
 33 34  2  0  0  0
 34 35  1  0  0  0
 35 36  2  0  0  0
 36 39  1  0  0  0
 39 40  1  0  0  0
 40 41  1  0  0  0
 41 42  1  0  0  0
 42 43  1  0  0  0
 43 44  1  0  0  0
 44 45  1  0  0  0
 45 46  1  0  0  0
 46 47  1  0  0  0
 47 48  1  0  0  0
 36 27  1  0  0  0
 48 43  1  0  0  0
 34 29  1  0  0  0
  6  1  1  0  0  0
 14 12  1  0  0  0
 25 19  1  0  0  0
  8 11  1  0  0  0
 17 18  1  0  0  0
M  END
> <minimizedAffinity>
15.83440

> <CNNscore>
0.2988373935

> <CNNaffinity>
7.1802444458

> <CNN_VS>
2.1457254887

> <CNNaffinity_variance>
0.3030111790

$$$$
[H]c1c([H])c([H])c(-c2c(-c3c([H])c([H])c([H])c([H])c3Cl)nc(C3([H])C([H])([H])C([H])([H])N(C(=O)c4c([H])c(OC([H])([H])[H])c(OC([H])([H])[H])c(OC([H])([H])[H])c4[H])C([H])([H])C3([H])[H])n2[H])c([H])c1[H]


 39 43  0  0  0  0  0  0  0  0999 V2000
    6.6788   52.5279  128.5834 C   0  0  0  0  0  0  0  0  0  0  0  0
    5.6631   52.8607  129.3625 O   0  0  0  0  0  0  0  0  0  0  0  0
    7.5164   51.5637  129.1687 N   0  0  0  0  0  0  0  0  0  0  0  0
    8.6333   50.9930  128.5091 C   0  0  0  0  0  0  0  0  0  0  0  0
    9.0996   49.6467  129.0343 C   0  0  0  0  0  0  0  0  0  0  0  0
    8.8094   49.4431  130.4998 C   0  0  0  0  0  0  0  0  0  0  0  0
    7.3570   49.7296  130.7197 C   0  0  0  0  0  0  0  0  0  0  0  0
    7.1716   51.2097  130.5596 C   0  0  0  0  0  0  0  0  0  0  0  0
    8.0199   53.8422  125.3648 C   0  0  0  0  0  0  0  0  0  0  0  0
    7.9059   53.2600  126.5970 C   0  0  0  0  0  0  0  0  0  0  0  0
    6.7049   53.2108  127.3299 C   0  0  0  0  0  0  0  0  0  0  0  0
    5.6383   53.7986  126.7072 C   0  0  0  0  0  0  0  0  0  0  0  0
    5.7561   54.4002  125.4349 C   0  0  0  0  0  0  0  0  0  0  0  0
    6.9450   54.4266  124.7553 C   0  0  0  0  0  0  0  0  0  0  0  0
    9.8111   55.0345  124.1571 C   0  0  0  0  0  0  0  0  0  0  0  0
    9.2247   53.8666  124.6794 O   0  0  0  0  0  0  0  0  0  0  0  0
    4.6350   54.9811  124.8575 O   0  0  0  0  0  0  0  0  0  0  0  0
    3.3911   54.9447  125.5289 C   0  0  0  0  0  0  0  0  0  0  0  0
    7.0031   55.0350  123.5001 O   0  0  0  0  0  0  0  0  0  0  0  0
    6.5367   54.3654  122.3380 C   0  0  0  0  0  0  0  0  0  0  0  0
    9.1488   48.0414  130.8524 C   0  0  0  0  0  0  0  0  0  0  0  0
    8.9038   46.9249  130.1495 N   0  0  0  0  0  0  0  0  0  0  0  0
    9.3728   45.8449  130.7938 C   0  0  0  0  0  0  0  0  0  0  0  0
    9.9425   46.3022  131.9603 C   0  0  0  0  0  0  0  0  0  0  0  0
    9.7843   47.6305  131.9539 N   0  0  0  0  0  0  0  0  0  0  0  0
   10.1187   48.2820  132.7220 H   0  0  0  0  0  0  0  0  0  0  0  0
    9.2678   44.4790  130.3130 C   0  0  0  0  0  0  0  0  0  0  0  0
    8.4338   43.6175  130.9660 C   0  0  0  0  0  0  0  0  0  0  0  0
    8.3143   42.3232  130.5273 C   0  0  0  0  0  0  0  0  0  0  0  0
    9.0390   41.8720  129.4140 C   0  0  0  0  0  0  0  0  0  0  0  0
    9.8744   42.7382  128.7607 C   0  0  0  0  0  0  0  0  0  0  0  0
    9.9783   44.0465  129.2253 C   0  0  0  0  0  0  0  0  0  0  0  0
   11.0621   45.1106  128.3329 Cl  0  0  0  0  0  0  0  0  0  0  0  0
   10.5874   45.5325  132.9999 C   0  0  0  0  0  0  0  0  0  0  0  0
    9.8891   45.0431  134.1024 C   0  0  0  0  0  0  0  0  0  0  0  0
   10.4837   44.3167  135.0945 C   0  0  0  0  0  0  0  0  0  0  0  0
   11.8322   44.0346  135.0382 C   0  0  0  0  0  0  0  0  0  0  0  0
   12.5318   44.5137  133.9524 C   0  0  0  0  0  0  0  0  0  0  0  0
   11.9406   45.2477  132.9463 C   0  0  0  0  0  0  0  0  0  0  0  0
 15 16  1  0  0  0
 16  9  1  0  0  0
  9 10  2  0  0  0
 10 11  1  0  0  0
 11 12  2  0  0  0
 12 13  1  0  0  0
 13 17  1  0  0  0
 17 18  1  0  0  0
 13 14  2  0  0  0
 14 19  1  0  0  0
 19 20  1  0  0  0
 11  1  1  0  0  0
  1  2  2  0  0  0
  1  3  1  0  0  0
  3  4  1  0  0  0
  4  5  1  0  0  0
  5  6  1  0  0  0
  6  7  1  0  0  0
  7  8  1  0  0  0
  6 21  1  0  0  0
 21 22  2  0  0  0
 22 23  1  0  0  0
 23 24  2  0  0  0
 24 25  1  0  0  0
 24 34  1  0  0  0
 34 35  2  0  0  0
 35 36  1  0  0  0
 36 37  2  0  0  0
 37 38  1  0  0  0
 38 39  2  0  0  0
 23 27  1  0  0  0
 27 28  2  0  0  0
 28 29  1  0  0  0
 29 30  2  0  0  0
 30 31  1  0  0  0
 31 32  2  0  0  0
 32 33  1  0  0  0
 14  9  1  0  0  0
  8  3  1  0  0  0
 25 21  1  0  0  0
 39 34  1  0  0  0
 32 27  1  0  0  0
 25 26  1  0  0  0
M  END
> <minimizedAffinity>
12.65072

> <CNNscore>
0.3772747815

> <CNNaffinity>
7.5348892212

> <CNN_VS>
2.8427236080

> <CNNaffinity_variance>
0.3590719998

$$$$
[H]c1c([H])c([H])c(-c2c(-c3c([H])c([H])c([H])c([H])c3Cl)nc(C3([H])C([H])([H])C([H])([H])N(C(=O)c4c([H])c(OC([H])([H])[H])c(OC([H])([H])[H])c(OC([H])([H])[H])c4[H])C([H])([H])C3([H])[H])n2[H])c([H])c1[H]


 39 43  0  0  0  0  0  0  0  0999 V2000
    6.5371   52.5740  128.4999 C   0  0  0  0  0  0  0  0  0  0  0  0
    5.5590   52.8958  129.3299 O   0  0  0  0  0  0  0  0  0  0  0  0
    7.4237   51.6318  129.0477 N   0  0  0  0  0  0  0  0  0  0  0  0
    8.5140   51.0753  128.3338 C   0  0  0  0  0  0  0  0  0  0  0  0
    9.0339   49.7435  128.8454 C   0  0  0  0  0  0  0  0  0  0  0  0
    8.8277   49.5498  130.3264 C   0  0  0  0  0  0  0  0  0  0  0  0
    7.3841   49.8113  130.6223 C   0  0  0  0  0  0  0  0  0  0  0  0
    7.1617   51.2859  130.4586 C   0  0  0  0  0  0  0  0  0  0  0  0
    7.6638   53.8459  125.1835 C   0  0  0  0  0  0  0  0  0  0  0  0
    7.6304   53.2769  126.4266 C   0  0  0  0  0  0  0  0  0  0  0  0
    6.4821   53.2440  127.2404 C   0  0  0  0  0  0  0  0  0  0  0  0
    5.3794   53.8337  126.6860 C   0  0  0  0  0  0  0  0  0  0  0  0
    5.4139   54.4217  125.4024 C   0  0  0  0  0  0  0  0  0  0  0  0
    6.5537   54.4323  124.6429 C   0  0  0  0  0  0  0  0  0  0  0  0
    9.8108   54.8493  124.4969 C   0  0  0  0  0  0  0  0  0  0  0  0
    8.8188   53.8542  124.4170 O   0  0  0  0  0  0  0  0  0  0  0  0
    4.2600   55.0053  124.8971 O   0  0  0  0  0  0  0  0  0  0  0  0
    3.0581   54.9619  125.6407 C   0  0  0  0  0  0  0  0  0  0  0  0
    6.5299   55.0277  123.3803 O   0  0  0  0  0  0  0  0  0  0  0  0
    6.6236   54.2458  122.1986 C   0  0  0  0  0  0  0  0  0  0  0  0
    9.2126   48.1584  130.6732 C   0  0  0  0  0  0  0  0  0  0  0  0
    8.4816   47.2266  131.3042 N   0  0  0  0  0  0  0  0  0  0  0  0
    9.1727   46.0824  131.4259 C   0  0  0  0  0  0  0  0  0  0  0  0
   10.3997   46.3026  130.8427 C   0  0  0  0  0  0  0  0  0  0  0  0
   10.3797   47.5659  130.4032 N   0  0  0  0  0  0  0  0  0  0  0  0
   11.1841   48.0437  129.9025 H   0  0  0  0  0  0  0  0  0  0  0  0
    8.6778   44.8761  132.0646 C   0  0  0  0  0  0  0  0  0  0  0  0
    8.3427   43.8103  131.2798 C   0  0  0  0  0  0  0  0  0  0  0  0
    7.8773   42.6580  131.8607 C   0  0  0  0  0  0  0  0  0  0  0  0
    7.7408   42.5597  133.2535 C   0  0  0  0  0  0  0  0  0  0  0  0
    8.0780   43.6300  134.0383 C   0  0  0  0  0  0  0  0  0  0  0  0
    8.5479   44.7881  133.4249 C   0  0  0  0  0  0  0  0  0  0  0  0
    8.9732   46.1227  134.4932 Cl  0  0  0  0  0  0  0  0  0  0  0  0
   11.5051   45.3802  130.7143 C   0  0  0  0  0  0  0  0  0  0  0  0
   12.0313   45.0207  129.4747 C   0  0  0  0  0  0  0  0  0  0  0  0
   13.0734   44.1489  129.3358 C   0  0  0  0  0  0  0  0  0  0  0  0
   13.6571   43.5786  130.4473 C   0  0  0  0  0  0  0  0  0  0  0  0
   13.1444   43.9275  131.6775 C   0  0  0  0  0  0  0  0  0  0  0  0
   12.0930   44.8063  131.8279 C   0  0  0  0  0  0  0  0  0  0  0  0
 15 16  1  0  0  0
 16  9  1  0  0  0
  9 10  2  0  0  0
 10 11  1  0  0  0
 11 12  2  0  0  0
 12 13  1  0  0  0
 13 17  1  0  0  0
 17 18  1  0  0  0
 13 14  2  0  0  0
 14 19  1  0  0  0
 19 20  1  0  0  0
 11  1  1  0  0  0
  1  2  2  0  0  0
  1  3  1  0  0  0
  3  4  1  0  0  0
  4  5  1  0  0  0
  5  6  1  0  0  0
  6  7  1  0  0  0
  7  8  1  0  0  0
  6 21  1  0  0  0
 21 22  2  0  0  0
 22 23  1  0  0  0
 23 24  2  0  0  0
 24 25  1  0  0  0
 24 34  1  0  0  0
 34 35  2  0  0  0
 35 36  1  0  0  0
 36 37  2  0  0  0
 37 38  1  0  0  0
 38 39  2  0  0  0
 23 27  1  0  0  0
 27 28  2  0  0  0
 28 29  1  0  0  0
 29 30  2  0  0  0
 30 31  1  0  0  0
 31 32  2  0  0  0
 32 33  1  0  0  0
 14  9  1  0  0  0
  8  3  1  0  0  0
 25 21  1  0  0  0
 39 34  1  0  0  0
 32 27  1  0  0  0
 25 26  1  0  0  0
M  END
> <minimizedAffinity>
17.75168

> <CNNscore>
0.3612421155

> <CNNaffinity>
7.2391753197

> <CNN_VS>
2.6150949001

> <CNNaffinity_variance>
0.8050872087

$$$$
[H]c1c([H])c([H])c(-c2c(-c3c([H])c([H])c([H])c([H])c3Cl)nc(C3([H])C([H])([H])C([H])([H])N(C(=O)c4c([H])c(OC([H])([H])[H])c(OC([H])([H])[H])c(OC([H])([H])[H])c4[H])C([H])([H])C3([H])[H])n2[H])c([H])c1[H]


 39 43  0  0  0  0  0  0  0  0999 V2000
    6.6327   52.6146  128.5035 C   0  0  0  0  0  0  0  0  0  0  0  0
    5.5565   52.9352  129.2022 O   0  0  0  0  0  0  0  0  0  0  0  0
    7.4494   51.6823  129.1649 N   0  0  0  0  0  0  0  0  0  0  0  0
    8.6239   51.1286  128.5971 C   0  0  0  0  0  0  0  0  0  0  0  0
    9.0837   49.8039  129.1798 C   0  0  0  0  0  0  0  0  0  0  0  0
    8.6950   49.6187  130.6247 C   0  0  0  0  0  0  0  0  0  0  0  0
    7.2242   49.8721  130.7358 C   0  0  0  0  0  0  0  0  0  0  0  0
    7.0151   51.3441  130.5345 C   0  0  0  0  0  0  0  0  0  0  0  0
    8.1613   53.8839  125.3510 C   0  0  0  0  0  0  0  0  0  0  0  0
    7.9753   53.3222  126.5840 C   0  0  0  0  0  0  0  0  0  0  0  0
    6.7316   53.2759  127.2420 C   0  0  0  0  0  0  0  0  0  0  0  0
    5.7016   53.8442  126.5443 C   0  0  0  0  0  0  0  0  0  0  0  0
    5.8936   54.4247  125.2712 C   0  0  0  0  0  0  0  0  0  0  0  0
    7.1221   54.4489  124.6660 C   0  0  0  0  0  0  0  0  0  0  0  0
    9.8955   54.9893  123.9876 C   0  0  0  0  0  0  0  0  0  0  0  0
    9.4060   53.9061  124.7410 O   0  0  0  0  0  0  0  0  0  0  0  0
    4.8064   54.9864  124.6155 O   0  0  0  0  0  0  0  0  0  0  0  0
    3.5429   55.0347  125.2485 C   0  0  0  0  0  0  0  0  0  0  0  0
    7.2536   55.0360  123.4062 O   0  0  0  0  0  0  0  0  0  0  0  0
    6.9821   54.3005  122.2222 C   0  0  0  0  0  0  0  0  0  0  0  0
    9.0419   48.2323  131.0274 C   0  0  0  0  0  0  0  0  0  0  0  0
    9.5930   47.8141  132.1773 N   0  0  0  0  0  0  0  0  0  0  0  0
    9.7451   46.4805  132.1740 C   0  0  0  0  0  0  0  0  0  0  0  0
    9.2659   46.0351  130.9631 C   0  0  0  0  0  0  0  0  0  0  0  0
    8.8530   47.1241  130.3049 N   0  0  0  0  0  0  0  0  0  0  0  0
    8.4280   47.1167  129.3326 H   0  0  0  0  0  0  0  0  0  0  0  0
   10.3168   45.7063  133.2610 C   0  0  0  0  0  0  0  0  0  0  0  0
    9.5881   45.5462  134.4044 C   0  0  0  0  0  0  0  0  0  0  0  0
   10.1053   44.8148  135.4434 C   0  0  0  0  0  0  0  0  0  0  0  0
   11.3759   44.2277  135.3465 C   0  0  0  0  0  0  0  0  0  0  0  0
   12.1044   44.3896  134.1985 C   0  0  0  0  0  0  0  0  0  0  0  0
   11.5575   45.1361  133.1583 C   0  0  0  0  0  0  0  0  0  0  0  0
   12.5430   45.2961  131.7069 Cl  0  0  0  0  0  0  0  0  0  0  0  0
    9.2063   44.6771  130.4720 C   0  0  0  0  0  0  0  0  0  0  0  0
   10.0128   44.2299  129.4269 C   0  0  0  0  0  0  0  0  0  0  0  0
    9.9672   42.9512  128.9494 C   0  0  0  0  0  0  0  0  0  0  0  0
    9.0979   42.0331  129.4997 C   0  0  0  0  0  0  0  0  0  0  0  0
    8.2963   42.4649  130.5335 C   0  0  0  0  0  0  0  0  0  0  0  0
    8.3351   43.7533  131.0222 C   0  0  0  0  0  0  0  0  0  0  0  0
 15 16  1  0  0  0
 16  9  1  0  0  0
  9 10  2  0  0  0
 10 11  1  0  0  0
 11 12  2  0  0  0
 12 13  1  0  0  0
 13 17  1  0  0  0
 17 18  1  0  0  0
 13 14  2  0  0  0
 14 19  1  0  0  0
 19 20  1  0  0  0
 11  1  1  0  0  0
  1  2  2  0  0  0
  1  3  1  0  0  0
  3  4  1  0  0  0
  4  5  1  0  0  0
  5  6  1  0  0  0
  6  7  1  0  0  0
  7  8  1  0  0  0
  6 21  1  0  0  0
 21 22  2  0  0  0
 22 23  1  0  0  0
 23 24  2  0  0  0
 24 25  1  0  0  0
 24 34  1  0  0  0
 34 35  2  0  0  0
 35 36  1  0  0  0
 36 37  2  0  0  0
 37 38  1  0  0  0
 38 39  2  0  0  0
 23 27  1  0  0  0
 27 28  2  0  0  0
 28 29  1  0  0  0
 29 30  2  0  0  0
 30 31  1  0  0  0
 31 32  2  0  0  0
 32 33  1  0  0  0
 14  9  1  0  0  0
  8  3  1  0  0  0
 25 21  1  0  0  0
 39 34  1  0  0  0
 32 27  1  0  0  0
 25 26  1  0  0  0
M  END
> <minimizedAffinity>
12.54661

> <CNNscore>
0.3380793631

> <CNNaffinity>
7.4850931168

> <CNN_VS>
2.5305554867

> <CNNaffinity_variance>
0.3218764365

$$$$
[H]c1c([H])c([H])c(-c2c(-c3c([H])c([H])c([H])c([H])c3Cl)nc(C3([H])C([H])([H])C([H])([H])N(C(=O)c4c([H])c(OC([H])([H])[H])c(OC([H])([H])[H])c(OC([H])([H])[H])c4[H])C([H])([H])C3([H])[H])n2[H])c([H])c1[H]


 39 43  0  0  0  0  0  0  0  0999 V2000
    6.7650   52.7192  128.3194 C   0  0  0  0  0  0  0  0  0  0  0  0
    5.8621   53.2454  129.1300 O   0  0  0  0  0  0  0  0  0  0  0  0
    7.5595   51.7483  128.9517 N   0  0  0  0  0  0  0  0  0  0  0  0
    8.5517   50.9906  128.2811 C   0  0  0  0  0  0  0  0  0  0  0  0
    8.9366   49.6740  128.9323 C   0  0  0  0  0  0  0  0  0  0  0  0
    8.7665   49.6752  130.4305 C   0  0  0  0  0  0  0  0  0  0  0  0
    7.3742   50.1356  130.7294 C   0  0  0  0  0  0  0  0  0  0  0  0
    7.3141   51.5979  130.3995 C   0  0  0  0  0  0  0  0  0  0  0  0
    5.4482   54.4199  125.2765 C   0  0  0  0  0  0  0  0  0  0  0  0
    5.5580   53.8423  126.5113 C   0  0  0  0  0  0  0  0  0  0  0  0
    6.7381   53.2437  126.9918 C   0  0  0  0  0  0  0  0  0  0  0  0
    7.7886   53.2832  126.1168 C   0  0  0  0  0  0  0  0  0  0  0  0
    7.6752   53.8792  124.8415 C   0  0  0  0  0  0  0  0  0  0  0  0
    6.5068   54.4510  124.4124 C   0  0  0  0  0  0  0  0  0  0  0  0
    3.0033   54.7258  125.4079 C   0  0  0  0  0  0  0  0  0  0  0  0
    4.2643   54.9984  124.8456 O   0  0  0  0  0  0  0  0  0  0  0  0
    8.7792   53.8853  123.9996 O   0  0  0  0  0  0  0  0  0  0  0  0
    9.6221   55.0192  123.9422 C   0  0  0  0  0  0  0  0  0  0  0  0
    6.4521   55.0262  123.1415 O   0  0  0  0  0  0  0  0  0  0  0  0
    6.2372   54.2308  121.9849 C   0  0  0  0  0  0  0  0  0  0  0  0
    9.0044   48.2969  130.9284 C   0  0  0  0  0  0  0  0  0  0  0  0
    9.4593   47.9148  132.1317 N   0  0  0  0  0  0  0  0  0  0  0  0
    9.5306   46.5768  132.2099 C   0  0  0  0  0  0  0  0  0  0  0  0
    9.0990   46.0904  130.9969 C   0  0  0  0  0  0  0  0  0  0  0  0
    8.7927   47.1614  130.2562 N   0  0  0  0  0  0  0  0  0  0  0  0
    8.4272   47.1224  129.2607 H   0  0  0  0  0  0  0  0  0  0  0  0
    9.9883   45.8351  133.3710 C   0  0  0  0  0  0  0  0  0  0  0  0
    9.2157   45.8393  134.4967 C   0  0  0  0  0  0  0  0  0  0  0  0
    9.6251   45.1418  135.6048 C   0  0  0  0  0  0  0  0  0  0  0  0
   10.8296   44.4226  135.5969 C   0  0  0  0  0  0  0  0  0  0  0  0
   11.6024   44.4198  134.4665 C   0  0  0  0  0  0  0  0  0  0  0  0
   11.1652   45.1352  133.3550 C   0  0  0  0  0  0  0  0  0  0  0  0
   12.2015   45.0807  131.9315 Cl  0  0  0  0  0  0  0  0  0  0  0  0
    8.9872   44.7120  130.5769 C   0  0  0  0  0  0  0  0  0  0  0  0
    9.4207   44.2804  129.3245 C   0  0  0  0  0  0  0  0  0  0  0  0
    9.3201   42.9825  128.9113 C   0  0  0  0  0  0  0  0  0  0  0  0
    8.7710   42.0281  129.7413 C   0  0  0  0  0  0  0  0  0  0  0  0
    8.3393   42.4444  130.9816 C   0  0  0  0  0  0  0  0  0  0  0  0
    8.4366   43.7518  131.4076 C   0  0  0  0  0  0  0  0  0  0  0  0
 15 16  1  0  0  0
 16  9  1  0  0  0
  9 10  2  0  0  0
 10 11  1  0  0  0
 11 12  2  0  0  0
 12 13  1  0  0  0
 13 17  1  0  0  0
 17 18  1  0  0  0
 13 14  2  0  0  0
 14 19  1  0  0  0
 19 20  1  0  0  0
 11  1  1  0  0  0
  1  2  2  0  0  0
  1  3  1  0  0  0
  3  4  1  0  0  0
  4  5  1  0  0  0
  5  6  1  0  0  0
  6  7  1  0  0  0
  7  8  1  0  0  0
  6 21  1  0  0  0
 21 22  2  0  0  0
 22 23  1  0  0  0
 23 24  2  0  0  0
 24 25  1  0  0  0
 24 34  1  0  0  0
 34 35  2  0  0  0
 35 36  1  0  0  0
 36 37  2  0  0  0
 37 38  1  0  0  0
 38 39  2  0  0  0
 23 27  1  0  0  0
 27 28  2  0  0  0
 28 29  1  0  0  0
 29 30  2  0  0  0
 30 31  1  0  0  0
 31 32  2  0  0  0
 32 33  1  0  0  0
 14  9  1  0  0  0
  8  3  1  0  0  0
 25 21  1  0  0  0
 39 34  1  0  0  0
 32 27  1  0  0  0
 25 26  1  0  0  0
M  END
> <minimizedAffinity>
12.82317

> <CNNscore>
0.3245970309

> <CNNaffinity>
7.4004936218

> <CNN_VS>
2.4021782875

> <CNNaffinity_variance>
0.4702731669

$$$$
[H]c1c([H])c([H])c(-c2c(-c3c([H])c([H])c([H])c([H])c3Cl)nc(C3([H])C([H])([H])C([H])([H])N(C(=O)c4c([H])c(OC([H])([H])[H])c(OC([H])([H])[H])c(OC([H])([H])[H])c4[H])C([H])([H])C3([H])[H])n2[H])c([H])c1[H]


 39 43  0  0  0  0  0  0  0  0999 V2000
    6.7961   52.6824  128.4115 C   0  0  0  0  0  0  0  0  0  0  0  0
    5.9382   53.2263  129.2585 O   0  0  0  0  0  0  0  0  0  0  0  0
    7.5862   51.6850  129.0071 N   0  0  0  0  0  0  0  0  0  0  0  0
    8.5320   50.9062  128.2950 C   0  0  0  0  0  0  0  0  0  0  0  0
    8.9041   49.5743  128.9221 C   0  0  0  0  0  0  0  0  0  0  0  0
    8.7890   49.5678  130.4255 C   0  0  0  0  0  0  0  0  0  0  0  0
    7.4217   50.0635  130.7787 C   0  0  0  0  0  0  0  0  0  0  0  0
    7.3898   51.5295  130.4618 C   0  0  0  0  0  0  0  0  0  0  0  0
    5.4052   54.4177  125.4215 C   0  0  0  0  0  0  0  0  0  0  0  0
    5.5460   53.8289  126.6478 C   0  0  0  0  0  0  0  0  0  0  0  0
    6.7351   53.2183  127.0895 C   0  0  0  0  0  0  0  0  0  0  0  0
    7.7606   53.2581  126.1853 C   0  0  0  0  0  0  0  0  0  0  0  0
    7.6152   53.8657  124.9187 C   0  0  0  0  0  0  0  0  0  0  0  0
    6.4391   54.4489  124.5279 C   0  0  0  0  0  0  0  0  0  0  0  0
    3.1298   54.3023  124.4741 C   0  0  0  0  0  0  0  0  0  0  0  0
    4.2137   55.0077  125.0293 O   0  0  0  0  0  0  0  0  0  0  0  0
    8.6948   53.8715  124.0458 O   0  0  0  0  0  0  0  0  0  0  0  0
    9.5961   54.9610  124.0385 C   0  0  0  0  0  0  0  0  0  0  0  0
    6.3522   55.0353  123.2639 O   0  0  0  0  0  0  0  0  0  0  0  0
    6.1317   54.2473  122.1032 C   0  0  0  0  0  0  0  0  0  0  0  0
    9.0069   48.1795  130.9044 C   0  0  0  0  0  0  0  0  0  0  0  0
    8.8351   47.0314  130.2310 N   0  0  0  0  0  0  0  0  0  0  0  0
    9.1460   45.9773  131.0016 C   0  0  0  0  0  0  0  0  0  0  0  0
    9.5337   46.4849  132.2208 C   0  0  0  0  0  0  0  0  0  0  0  0
    9.4341   47.8149  132.1170 N   0  0  0  0  0  0  0  0  0  0  0  0
    9.6639   48.4999  132.8942 H   0  0  0  0  0  0  0  0  0  0  0  0
    9.0652   44.5893  130.5837 C   0  0  0  0  0  0  0  0  0  0  0  0
    8.1541   43.7746  131.1922 C   0  0  0  0  0  0  0  0  0  0  0  0
    8.0559   42.4604  130.8110 C   0  0  0  0  0  0  0  0  0  0  0  0
    8.8809   41.9413  129.8019 C   0  0  0  0  0  0  0  0  0  0  0  0
    9.7935   42.7607  129.1931 C   0  0  0  0  0  0  0  0  0  0  0  0
    9.8738   44.0904  129.5977 C   0  0  0  0  0  0  0  0  0  0  0  0
   11.0612   45.0915  128.7663 Cl  0  0  0  0  0  0  0  0  0  0  0  0
    9.9656   45.7584  133.3933 C   0  0  0  0  0  0  0  0  0  0  0  0
    9.4011   45.9737  134.6493 C   0  0  0  0  0  0  0  0  0  0  0  0
    9.7992   45.2978  135.7674 C   0  0  0  0  0  0  0  0  0  0  0  0
   10.8007   44.3531  135.6902 C   0  0  0  0  0  0  0  0  0  0  0  0
   11.3654   44.1326  134.4531 C   0  0  0  0  0  0  0  0  0  0  0  0
   10.9704   44.8097  133.3191 C   0  0  0  0  0  0  0  0  0  0  0  0
 15 16  1  0  0  0
 16  9  1  0  0  0
  9 10  2  0  0  0
 10 11  1  0  0  0
 11 12  2  0  0  0
 12 13  1  0  0  0
 13 17  1  0  0  0
 17 18  1  0  0  0
 13 14  2  0  0  0
 14 19  1  0  0  0
 19 20  1  0  0  0
 11  1  1  0  0  0
  1  2  2  0  0  0
  1  3  1  0  0  0
  3  4  1  0  0  0
  4  5  1  0  0  0
  5  6  1  0  0  0
  6  7  1  0  0  0
  7  8  1  0  0  0
  6 21  1  0  0  0
 21 22  2  0  0  0
 22 23  1  0  0  0
 23 24  2  0  0  0
 24 25  1  0  0  0
 24 34  1  0  0  0
 34 35  2  0  0  0
 35 36  1  0  0  0
 36 37  2  0  0  0
 37 38  1  0  0  0
 38 39  2  0  0  0
 23 27  1  0  0  0
 27 28  2  0  0  0
 28 29  1  0  0  0
 29 30  2  0  0  0
 30 31  1  0  0  0
 31 32  2  0  0  0
 32 33  1  0  0  0
 14  9  1  0  0  0
  8  3  1  0  0  0
 25 21  1  0  0  0
 39 34  1  0  0  0
 32 27  1  0  0  0
 25 26  1  0  0  0
M  END
> <minimizedAffinity>
12.66548

> <CNNscore>
0.3173379004

> <CNNaffinity>
7.3899598122

> <CNN_VS>
2.3451142311

> <CNNaffinity_variance>
0.4216687083

$$$$
[H]c1c([H])c([H])c(-c2c(-c3c([H])c([H])c([H])c([H])c3Cl)nc(C3([H])C([H])([H])C([H])([H])N(C(=O)c4c([H])c(OC([H])([H])[H])c(OC([H])([H])[H])c(OC([H])([H])[H])c4[H])C([H])([H])C3([H])[H])n2[H])c([H])c1[H]


 39 43  0  0  0  0  0  0  0  0999 V2000
    6.4456   53.6630  127.7664 C   0  0  0  0  0  0  0  0  0  0  0  0
    6.2189   54.5240  128.7445 O   0  0  0  0  0  0  0  0  0  0  0  0
    7.2423   52.5797  128.1731 N   0  0  0  0  0  0  0  0  0  0  0  0
    7.5700   51.4889  127.3298 C   0  0  0  0  0  0  0  0  0  0  0  0
    7.9674   50.2020  128.0310 C   0  0  0  0  0  0  0  0  0  0  0  0
    8.6030   50.4270  129.3796 C   0  0  0  0  0  0  0  0  0  0  0  0
    7.6909   51.3121  130.1699 C   0  0  0  0  0  0  0  0  0  0  0  0
    7.7592   52.6776  129.5523 C   0  0  0  0  0  0  0  0  0  0  0  0
    6.1742   54.6800  124.1918 C   0  0  0  0  0  0  0  0  0  0  0  0
    6.6556   54.3789  125.4359 C   0  0  0  0  0  0  0  0  0  0  0  0
    5.8385   54.0145  126.5229 C   0  0  0  0  0  0  0  0  0  0  0  0
    4.5010   53.9821  126.2386 C   0  0  0  0  0  0  0  0  0  0  0  0
    4.0036   54.2935  124.9540 C   0  0  0  0  0  0  0  0  0  0  0  0
    4.8345   54.6440  123.9230 C   0  0  0  0  0  0  0  0  0  0  0  0
    7.3175   54.1965  122.0594 C   0  0  0  0  0  0  0  0  0  0  0  0
    7.0178   55.0337  123.1503 O   0  0  0  0  0  0  0  0  0  0  0  0
    2.6343   54.2429  124.7308 O   0  0  0  0  0  0  0  0  0  0  0  0
    1.8041   53.4768  125.5812 C   0  0  0  0  0  0  0  0  0  0  0  0
    4.2874   54.9414  122.6734 O   0  0  0  0  0  0  0  0  0  0  0  0
    3.5480   53.9712  121.9465 C   0  0  0  0  0  0  0  0  0  0  0  0
    8.7864   49.1076  130.0352 C   0  0  0  0  0  0  0  0  0  0  0  0
    8.9216   47.9040  129.4573 N   0  0  0  0  0  0  0  0  0  0  0  0
    9.0781   46.9464  130.3847 C   0  0  0  0  0  0  0  0  0  0  0  0
    9.0407   47.5765  131.6078 C   0  0  0  0  0  0  0  0  0  0  0  0
    8.8632   48.8769  131.3493 N   0  0  0  0  0  0  0  0  0  0  0  0
    8.7919   49.6351  132.0884 H   0  0  0  0  0  0  0  0  0  0  0  0
    9.2441   45.5325  130.1000 C   0  0  0  0  0  0  0  0  0  0  0  0
   10.4604   45.0910  129.6641 C   0  0  0  0  0  0  0  0  0  0  0  0
   10.6428   43.7586  129.3931 C   0  0  0  0  0  0  0  0  0  0  0  0
    9.5941   42.8415  129.5583 C   0  0  0  0  0  0  0  0  0  0  0  0
    8.3754   43.2869  129.9959 C   0  0  0  0  0  0  0  0  0  0  0  0
    8.2155   44.6436  130.2642 C   0  0  0  0  0  0  0  0  0  0  0  0
    6.6263   45.1472  130.8335 Cl  0  0  0  0  0  0  0  0  0  0  0  0
    9.1646   46.9846  132.9206 C   0  0  0  0  0  0  0  0  0  0  0  0
    8.2968   45.9917  133.3718 C   0  0  0  0  0  0  0  0  0  0  0  0
    8.3984   45.4241  134.6098 C   0  0  0  0  0  0  0  0  0  0  0  0
    9.3902   45.8245  135.4801 C   0  0  0  0  0  0  0  0  0  0  0  0
   10.2535   46.8055  135.0437 C   0  0  0  0  0  0  0  0  0  0  0  0
   10.1589   47.3843  133.7962 C   0  0  0  0  0  0  0  0  0  0  0  0
 15 16  1  0  0  0
 16  9  1  0  0  0
  9 10  2  0  0  0
 10 11  1  0  0  0
 11 12  2  0  0  0
 12 13  1  0  0  0
 13 17  1  0  0  0
 17 18  1  0  0  0
 13 14  2  0  0  0
 14 19  1  0  0  0
 19 20  1  0  0  0
 11  1  1  0  0  0
  1  2  2  0  0  0
  1  3  1  0  0  0
  3  4  1  0  0  0
  4  5  1  0  0  0
  5  6  1  0  0  0
  6  7  1  0  0  0
  7  8  1  0  0  0
  6 21  1  0  0  0
 21 22  2  0  0  0
 22 23  1  0  0  0
 23 24  2  0  0  0
 24 25  1  0  0  0
 24 34  1  0  0  0
 34 35  2  0  0  0
 35 36  1  0  0  0
 36 37  2  0  0  0
 37 38  1  0  0  0
 38 39  2  0  0  0
 23 27  1  0  0  0
 27 28  2  0  0  0
 28 29  1  0  0  0
 29 30  2  0  0  0
 30 31  1  0  0  0
 31 32  2  0  0  0
 32 33  1  0  0  0
 14  9  1  0  0  0
  8  3  1  0  0  0
 25 21  1  0  0  0
 39 34  1  0  0  0
 32 27  1  0  0  0
 25 26  1  0  0  0
M  END
> <minimizedAffinity>
16.03615

> <CNNscore>
0.0955084786

> <CNNaffinity>
6.8249678612

> <CNN_VS>
0.6518422961

> <CNNaffinity_variance>
0.3034932017

$$$$
[H]c1c([H])c([H])c(-c2c(-c3c([H])c([H])c([H])c([H])c3Cl)nc(C3([H])C([H])([H])C([H])([H])N(C(=O)c4c([H])c(OC([H])([H])[H])c(OC([H])([H])[H])c(OC([H])([H])[H])c4[H])C([H])([H])C3([H])[H])n2[H])c([H])c1[H]


 39 43  0  0  0  0  0  0  0  0999 V2000
   10.3327   50.0544  129.0165 C   0  0  0  0  0  0  0  0  0  0  0  0
   11.6023   50.1562  128.6601 O   0  0  0  0  0  0  0  0  0  0  0  0
    9.8684   48.7287  128.9916 N   0  0  0  0  0  0  0  0  0  0  0  0
    8.5645   48.3481  129.3960 C   0  0  0  0  0  0  0  0  0  0  0  0
    8.3917   46.8955  129.8029 C   0  0  0  0  0  0  0  0  0  0  0  0
    9.3495   45.9613  129.1077 C   0  0  0  0  0  0  0  0  0  0  0  0
   10.7316   46.5026  129.2989 C   0  0  0  0  0  0  0  0  0  0  0  0
   10.8362   47.7459  128.4659 C   0  0  0  0  0  0  0  0  0  0  0  0
    8.7228   52.6958  131.0942 C   0  0  0  0  0  0  0  0  0  0  0  0
    9.2769   51.5209  130.6664 C   0  0  0  0  0  0  0  0  0  0  0  0
    9.7146   51.2982  129.3470 C   0  0  0  0  0  0  0  0  0  0  0  0
    9.5428   52.3639  128.5070 C   0  0  0  0  0  0  0  0  0  0  0  0
    8.9701   53.5770  128.9485 C   0  0  0  0  0  0  0  0  0  0  0  0
    8.5567   53.7520  130.2426 C   0  0  0  0  0  0  0  0  0  0  0  0
    9.0608   52.4876  133.5294 C   0  0  0  0  0  0  0  0  0  0  0  0
    8.3060   52.8699  132.4048 O   0  0  0  0  0  0  0  0  0  0  0  0
    8.8223   54.6208  128.0452 O   0  0  0  0  0  0  0  0  0  0  0  0
    8.7813   54.3575  126.6565 C   0  0  0  0  0  0  0  0  0  0  0  0
    7.9976   54.9732  130.6238 O   0  0  0  0  0  0  0  0  0  0  0  0
    6.7104   55.0364  131.2202 C   0  0  0  0  0  0  0  0  0  0  0  0
    9.2039   44.6115  129.7086 C   0  0  0  0  0  0  0  0  0  0  0  0
    8.4447   43.5899  129.2835 N   0  0  0  0  0  0  0  0  0  0  0  0
    8.5876   42.5247  130.0875 C   0  0  0  0  0  0  0  0  0  0  0  0
    9.4813   42.8916  131.0678 C   0  0  0  0  0  0  0  0  0  0  0  0
    9.8260   44.1562  130.8003 N   0  0  0  0  0  0  0  0  0  0  0  0
   10.5066   44.7312  131.3767 H   0  0  0  0  0  0  0  0  0  0  0  0
    7.9032   41.2558  129.9161 C   0  0  0  0  0  0  0  0  0  0  0  0
    7.0918   40.8091  130.9192 C   0  0  0  0  0  0  0  0  0  0  0  0
    6.4308   39.6152  130.7781 C   0  0  0  0  0  0  0  0  0  0  0  0
    6.5776   38.8456  129.6143 C   0  0  0  0  0  0  0  0  0  0  0  0
    7.3918   39.2963  128.6097 C   0  0  0  0  0  0  0  0  0  0  0  0
    8.0515   40.5108  128.7768 C   0  0  0  0  0  0  0  0  0  0  0  0
    9.0743   41.0364  127.4423 Cl  0  0  0  0  0  0  0  0  0  0  0  0
    9.9687   42.0983  132.1733 C   0  0  0  0  0  0  0  0  0  0  0  0
   11.3115   41.7467  132.2990 C   0  0  0  0  0  0  0  0  0  0  0  0
   11.7879   40.9957  133.3356 C   0  0  0  0  0  0  0  0  0  0  0  0
   10.9335   40.5471  134.3206 C   0  0  0  0  0  0  0  0  0  0  0  0
    9.6040   40.8892  134.2057 C   0  0  0  0  0  0  0  0  0  0  0  0
    9.1138   41.6466  133.1634 C   0  0  0  0  0  0  0  0  0  0  0  0
 15 16  1  0  0  0
 16  9  1  0  0  0
  9 10  2  0  0  0
 10 11  1  0  0  0
 11 12  2  0  0  0
 12 13  1  0  0  0
 13 17  1  0  0  0
 17 18  1  0  0  0
 13 14  2  0  0  0
 14 19  1  0  0  0
 19 20  1  0  0  0
 11  1  1  0  0  0
  1  2  2  0  0  0
  1  3  1  0  0  0
  3  4  1  0  0  0
  4  5  1  0  0  0
  5  6  1  0  0  0
  6  7  1  0  0  0
  7  8  1  0  0  0
  6 21  1  0  0  0
 21 22  2  0  0  0
 22 23  1  0  0  0
 23 24  2  0  0  0
 24 25  1  0  0  0
 24 34  1  0  0  0
 34 35  2  0  0  0
 35 36  1  0  0  0
 36 37  2  0  0  0
 37 38  1  0  0  0
 38 39  2  0  0  0
 23 27  1  0  0  0
 27 28  2  0  0  0
 28 29  1  0  0  0
 29 30  2  0  0  0
 30 31  1  0  0  0
 31 32  2  0  0  0
 32 33  1  0  0  0
 14  9  1  0  0  0
  8  3  1  0  0  0
 25 21  1  0  0  0
 39 34  1  0  0  0
 32 27  1  0  0  0
 25 26  1  0  0  0
M  END
> <minimizedAffinity>
166.48958

> <CNNscore>
0.0175772272

> <CNNaffinity>
5.5088348389

> <CNN_VS>
0.0968300402

> <CNNaffinity_variance>
0.8591429591

$$$$
[H]c1c([H])c([H])c(-c2c(-c3c([H])c([H])c([H])c([H])c3Cl)nc(C3([H])C([H])([H])C([H])([H])N(C(=O)c4c([H])c(OC([H])([H])[H])c(OC([H])([H])[H])c(OC([H])([H])[H])c4[H])C([H])([H])C3([H])[H])n2[H])c([H])c1[H]


 39 43  0  0  0  0  0  0  0  0999 V2000
    9.3692   44.6587  131.8911 C   0  0  0  0  0  0  0  0  0  0  0  0
   10.0573   45.1850  132.8905 O   0  0  0  0  0  0  0  0  0  0  0  0
    8.3460   45.5057  131.4335 N   0  0  0  0  0  0  0  0  0  0  0  0
    7.5127   45.2006  130.3285 C   0  0  0  0  0  0  0  0  0  0  0  0
    6.8446   46.3847  129.6523 C   0  0  0  0  0  0  0  0  0  0  0  0
    6.5938   47.5429  130.5845 C   0  0  0  0  0  0  0  0  0  0  0  0
    7.8855   47.8628  131.2696 C   0  0  0  0  0  0  0  0  0  0  0  0
    8.1673   46.7397  132.2235 C   0  0  0  0  0  0  0  0  0  0  0  0
   10.0128   41.7246  129.6859 C   0  0  0  0  0  0  0  0  0  0  0  0
    9.5834   42.9274  130.1752 C   0  0  0  0  0  0  0  0  0  0  0  0
    9.8093   43.3593  131.4959 C   0  0  0  0  0  0  0  0  0  0  0  0
   10.5042   42.4711  132.2700 C   0  0  0  0  0  0  0  0  0  0  0  0
   10.9471   41.2288  131.7650 C   0  0  0  0  0  0  0  0  0  0  0  0
   10.7055   40.8468  130.4720 C   0  0  0  0  0  0  0  0  0  0  0  0
   10.1621   42.0863  127.2498 C   0  0  0  0  0  0  0  0  0  0  0  0
    9.7672   41.3413  128.3766 O   0  0  0  0  0  0  0  0  0  0  0  0
   11.6468   40.3712  132.6031 O   0  0  0  0  0  0  0  0  0  0  0  0
   10.9561   39.5978  133.5646 C   0  0  0  0  0  0  0  0  0  0  0  0
   11.1674   39.6069  130.0265 O   0  0  0  0  0  0  0  0  0  0  0  0
   10.2840   38.5049  129.8784 C   0  0  0  0  0  0  0  0  0  0  0  0
    6.1031   48.6910  129.7811 C   0  0  0  0  0  0  0  0  0  0  0  0
    4.8462   48.9578  129.3942 N   0  0  0  0  0  0  0  0  0  0  0  0
    4.7984   50.0974  128.6867 C   0  0  0  0  0  0  0  0  0  0  0  0
    6.0882   50.5736  128.6246 C   0  0  0  0  0  0  0  0  0  0  0  0
    6.8403   49.6949  129.2968 N   0  0  0  0  0  0  0  0  0  0  0  0
    7.8895   49.7779  129.4328 H   0  0  0  0  0  0  0  0  0  0  0  0
    3.5938   50.6703  128.1136 C   0  0  0  0  0  0  0  0  0  0  0  0
    3.3167   50.4308  126.7983 C   0  0  0  0  0  0  0  0  0  0  0  0
    2.1818   50.9576  126.2357 C   0  0  0  0  0  0  0  0  0  0  0  0
    1.3001   51.7408  126.9955 C   0  0  0  0  0  0  0  0  0  0  0  0
    1.5802   51.9792  128.3145 C   0  0  0  0  0  0  0  0  0  0  0  0
    2.7380   51.4335  128.8621 C   0  0  0  0  0  0  0  0  0  0  0  0
    3.0324   51.7703  130.5659 Cl  0  0  0  0  0  0  0  0  0  0  0  0
    6.5663   51.7730  127.9751 C   0  0  0  0  0  0  0  0  0  0  0  0
    5.8836   52.9852  128.0600 C   0  0  0  0  0  0  0  0  0  0  0  0
    6.3201   54.1268  127.4504 C   0  0  0  0  0  0  0  0  0  0  0  0
    7.4831   54.1195  126.7095 C   0  0  0  0  0  0  0  0  0  0  0  0
    8.1656   52.9262  126.6193 C   0  0  0  0  0  0  0  0  0  0  0  0
    7.7331   51.7690  127.2309 C   0  0  0  0  0  0  0  0  0  0  0  0
 15 16  1  0  0  0
 16  9  1  0  0  0
  9 10  2  0  0  0
 10 11  1  0  0  0
 11 12  2  0  0  0
 12 13  1  0  0  0
 13 17  1  0  0  0
 17 18  1  0  0  0
 13 14  2  0  0  0
 14 19  1  0  0  0
 19 20  1  0  0  0
 11  1  1  0  0  0
  1  2  2  0  0  0
  1  3  1  0  0  0
  3  4  1  0  0  0
  4  5  1  0  0  0
  5  6  1  0  0  0
  6  7  1  0  0  0
  7  8  1  0  0  0
  6 21  1  0  0  0
 21 22  2  0  0  0
 22 23  1  0  0  0
 23 24  2  0  0  0
 24 25  1  0  0  0
 24 34  1  0  0  0
 34 35  2  0  0  0
 35 36  1  0  0  0
 36 37  2  0  0  0
 37 38  1  0  0  0
 38 39  2  0  0  0
 23 27  1  0  0  0
 27 28  2  0  0  0
 28 29  1  0  0  0
 29 30  2  0  0  0
 30 31  1  0  0  0
 31 32  2  0  0  0
 32 33  1  0  0  0
 14  9  1  0  0  0
  8  3  1  0  0  0
 25 21  1  0  0  0
 39 34  1  0  0  0
 32 27  1  0  0  0
 25 26  1  0  0  0
M  END
> <minimizedAffinity>
61.55114

> <CNNscore>
0.0162187405

> <CNNaffinity>
6.2555761337

> <CNN_VS>
0.1014575660

> <CNNaffinity_variance>
0.1933937222

$$$$
[H]c1c([H])c([H])c(-c2c(-c3c([H])c([H])c([H])c([H])c3Cl)nc(C3([H])C([H])([H])C([H])([H])N(C(=O)c4c([H])c(OC([H])([H])[H])c(OC([H])([H])[H])c(OC([H])([H])[H])c4[H])C([H])([H])C3([H])[H])n2[H])c([H])c1[H]


 39 43  0  0  0  0  0  0  0  0999 V2000
    3.1070   40.2838  129.3976 C   0  0  0  0  0  0  0  0  0  0  0  0
    2.0475   40.4318  128.6198 O   0  0  0  0  0  0  0  0  0  0  0  0
    4.3076   40.2222  128.6707 N   0  0  0  0  0  0  0  0  0  0  0  0
    5.5858   40.1344  129.2763 C   0  0  0  0  0  0  0  0  0  0  0  0
    6.7574   40.5939  128.4267 C   0  0  0  0  0  0  0  0  0  0  0  0
    6.5279   40.4200  126.9467 C   0  0  0  0  0  0  0  0  0  0  0  0
    5.2212   41.0676  126.6102 C   0  0  0  0  0  0  0  0  0  0  0  0
    4.1408   40.2127  127.2041 C   0  0  0  0  0  0  0  0  0  0  0  0
    1.7126   41.2844  132.7052 C   0  0  0  0  0  0  0  0  0  0  0  0
    2.0940   41.2760  131.3919 C   0  0  0  0  0  0  0  0  0  0  0  0
    2.8068   40.2205  130.7920 C   0  0  0  0  0  0  0  0  0  0  0  0
    3.0953   39.1825  131.6347 C   0  0  0  0  0  0  0  0  0  0  0  0
    2.7020   39.1913  132.9910 C   0  0  0  0  0  0  0  0  0  0  0  0
    2.0090   40.2398  133.5356 C   0  0  0  0  0  0  0  0  0  0  0  0
    1.5543   43.2576  134.1781 C   0  0  0  0  0  0  0  0  0  0  0  0
    1.0107   42.3469  133.2531 O   0  0  0  0  0  0  0  0  0  0  0  0
    3.0271   38.1067  133.7943 O   0  0  0  0  0  0  0  0  0  0  0  0
    3.0564   38.2483  135.2009 C   0  0  0  0  0  0  0  0  0  0  0  0
    1.6455   40.1946  134.8828 O   0  0  0  0  0  0  0  0  0  0  0  0
    1.3963   38.9577  135.5343 C   0  0  0  0  0  0  0  0  0  0  0  0
    7.6558   41.0573  126.2213 C   0  0  0  0  0  0  0  0  0  0  0  0
    7.6198   42.1081  125.3875 N   0  0  0  0  0  0  0  0  0  0  0  0
    8.8497   42.3980  124.9348 C   0  0  0  0  0  0  0  0  0  0  0  0
    9.7039   41.4859  125.5117 C   0  0  0  0  0  0  0  0  0  0  0  0
    8.9417   40.6979  126.2783 N   0  0  0  0  0  0  0  0  0  0  0  0
    9.3047   39.8887  126.8609 H   0  0  0  0  0  0  0  0  0  0  0  0
    9.1636   43.4727  124.0106 C   0  0  0  0  0  0  0  0  0  0  0  0
    8.1380   44.2069  123.4878 C   0  0  0  0  0  0  0  0  0  0  0  0
    8.4101   45.2306  122.6161 C   0  0  0  0  0  0  0  0  0  0  0  0
    9.7311   45.5340  122.2538 C   0  0  0  0  0  0  0  0  0  0  0  0
   10.7578   44.7963  122.7798 C   0  0  0  0  0  0  0  0  0  0  0  0
   10.4557   43.7628  123.6623 C   0  0  0  0  0  0  0  0  0  0  0  0
   11.8236   42.8610  124.3097 Cl  0  0  0  0  0  0  0  0  0  0  0  0
   11.1353   41.3745  125.3451 C   0  0  0  0  0  0  0  0  0  0  0  0
   11.8820   40.3864  125.9844 C   0  0  0  0  0  0  0  0  0  0  0  0
   13.2350   40.2689  125.8398 C   0  0  0  0  0  0  0  0  0  0  0  0
   13.9281   41.1476  125.0342 C   0  0  0  0  0  0  0  0  0  0  0  0
   13.1992   42.1281  124.3976 C   0  0  0  0  0  0  0  0  0  0  0  0
   11.8337   42.2548  124.5374 C   0  0  0  0  0  0  0  0  0  0  0  0
 15 16  1  0  0  0
 16  9  1  0  0  0
  9 10  2  0  0  0
 10 11  1  0  0  0
 11 12  2  0  0  0
 12 13  1  0  0  0
 13 17  1  0  0  0
 17 18  1  0  0  0
 13 14  2  0  0  0
 14 19  1  0  0  0
 19 20  1  0  0  0
 11  1  1  0  0  0
  1  2  2  0  0  0
  1  3  1  0  0  0
  3  4  1  0  0  0
  4  5  1  0  0  0
  5  6  1  0  0  0
  6  7  1  0  0  0
  7  8  1  0  0  0
  6 21  1  0  0  0
 21 22  2  0  0  0
 22 23  1  0  0  0
 23 24  2  0  0  0
 24 25  1  0  0  0
 24 34  1  0  0  0
 34 35  2  0  0  0
 35 36  1  0  0  0
 36 37  2  0  0  0
 37 38  1  0  0  0
 38 39  2  0  0  0
 23 27  1  0  0  0
 27 28  2  0  0  0
 28 29  1  0  0  0
 29 30  2  0  0  0
 30 31  1  0  0  0
 31 32  2  0  0  0
 32 33  1  0  0  0
 14  9  1  0  0  0
  8  3  1  0  0  0
 25 21  1  0  0  0
 39 34  1  0  0  0
 32 27  1  0  0  0
 25 26  1  0  0  0
M  END
> <minimizedAffinity>
357.62344

> <CNNscore>
0.0122499801

> <CNNaffinity>
3.5282874107

> <CNN_VS>
0.0432214513

> <CNNaffinity_variance>
2.1069531441

$$$$
[H]OC(=O)c1c([H])c([H])c(-c2c([H])c(C#N)c([H])c3c([H])c([H])c([H])c([H])c23)c([H])c1O[H]


 24 26  0  0  0  0  0  0  0  0999 V2000
    7.3478   49.6426  129.8702 C   0  0  0  0  0  0  0  0  0  0  0  0
    8.6333   49.6627  130.4506 C   0  0  0  0  0  0  0  0  0  0  0  0
    9.3740   48.5264  130.5733 C   0  0  0  0  0  0  0  0  0  0  0  0
    8.9092   47.3146  130.1412 C   0  0  0  0  0  0  0  0  0  0  0  0
    7.6709   47.2689  129.5773 C   0  0  0  0  0  0  0  0  0  0  0  0
    6.8800   48.4306  129.4368 C   0  0  0  0  0  0  0  0  0  0  0  0
    5.6501   48.3123  128.8632 O   0  0  0  0  0  0  0  0  0  0  0  0
    5.0004   48.9978  128.6981 H   0  0  0  0  0  0  0  0  0  0  0  0
    9.6889   46.0864  130.2644 C   0  0  0  0  0  0  0  0  0  0  0  0
    9.6255   45.1269  129.2478 C   0  0  0  0  0  0  0  0  0  0  0  0
   10.2912   43.9336  129.3221 C   0  0  0  0  0  0  0  0  0  0  0  0
   11.0371   43.7157  130.4579 C   0  0  0  0  0  0  0  0  0  0  0  0
   11.1285   44.6313  131.4814 C   0  0  0  0  0  0  0  0  0  0  0  0
   11.8983   44.3664  132.5871 C   0  0  0  0  0  0  0  0  0  0  0  0
   11.9948   45.2793  133.5863 C   0  0  0  0  0  0  0  0  0  0  0  0
   11.3306   46.4834  133.5185 C   0  0  0  0  0  0  0  0  0  0  0  0
   10.5491   46.7797  132.4214 C   0  0  0  0  0  0  0  0  0  0  0  0
   10.4410   45.8489  131.3894 C   0  0  0  0  0  0  0  0  0  0  0  0
   10.2200   42.9433  128.2625 C   0  0  0  0  0  0  0  0  0  0  0  0
   10.1557   42.1541  127.4187 N   0  0  0  0  0  0  0  0  0  0  0  0
    6.8830   51.7343  128.6655 O   0  0  0  0  0  0  0  0  0  0  0  0
    6.6119   50.8860  129.7695 C   0  0  0  0  0  0  0  0  0  0  0  0
    5.7495   51.3217  130.5435 O   0  0  0  0  0  0  0  0  0  0  0  0
    6.7997   52.7236  128.7149 H   0  0  0  0  0  0  0  0  0  0  0  0
 21 22  1  0  0  0
 22 23  2  0  0  0
 22  1  1  0  0  0
  1  2  2  0  0  0
  2  3  1  0  0  0
  3  4  2  0  0  0
  4  5  1  0  0  0
  5  6  2  0  0  0
  6  7  1  0  0  0
  4  9  1  0  0  0
  9 10  2  0  0  0
 10 11  1  0  0  0
 11 12  2  0  0  0
 12 13  1  0  0  0
 13 14  2  0  0  0
 14 15  1  0  0  0
 15 16  2  0  0  0
 16 17  1  0  0  0
 17 18  2  0  0  0
 11 19  1  0  0  0
 19 20  3  0  0  0
  6  1  1  0  0  0
 18  9  1  0  0  0
 18 13  1  0  0  0
 21 24  1  0  0  0
  7  8  1  0  0  0
M  END
> <minimizedAffinity>
-7.52389

> <CNNscore>
0.5252664685

> <CNNaffinity>
6.8542685509

> <CNN_VS>
3.6003174782

> <CNNaffinity_variance>
0.9153652191

$$$$
[H]OC(=O)c1c([H])c([H])c(-c2c([H])c(C#N)c([H])c3c([H])c([H])c([H])c([H])c23)c([H])c1O[H]


 24 26  0  0  0  0  0  0  0  0999 V2000
    7.2360   49.5770  130.1901 C   0  0  0  0  0  0  0  0  0  0  0  0
    8.3669   49.7381  131.0178 C   0  0  0  0  0  0  0  0  0  0  0  0
    9.1682   48.6841  131.3370 C   0  0  0  0  0  0  0  0  0  0  0  0
    8.9165   47.4224  130.8721 C   0  0  0  0  0  0  0  0  0  0  0  0
    7.8306   47.2410  130.0712 C   0  0  0  0  0  0  0  0  0  0  0  0
    6.9817   48.3149  129.7234 C   0  0  0  0  0  0  0  0  0  0  0  0
    5.9126   48.0618  128.9180 O   0  0  0  0  0  0  0  0  0  0  0  0
    5.2504   48.6754  128.5952 H   0  0  0  0  0  0  0  0  0  0  0  0
    9.7641   46.2809  131.2036 C   0  0  0  0  0  0  0  0  0  0  0  0
    9.9655   45.9410  132.5461 C   0  0  0  0  0  0  0  0  0  0  0  0
   10.7860   44.9148  132.9283 C   0  0  0  0  0  0  0  0  0  0  0  0
   11.4139   44.2213  131.9190 C   0  0  0  0  0  0  0  0  0  0  0  0
   11.2443   44.5204  130.5863 C   0  0  0  0  0  0  0  0  0  0  0  0
   11.8864   43.7865  129.6198 C   0  0  0  0  0  0  0  0  0  0  0  0
   11.7040   44.0782  128.3073 C   0  0  0  0  0  0  0  0  0  0  0  0
   10.8781   45.1071  127.9138 C   0  0  0  0  0  0  0  0  0  0  0  0
   10.2189   45.8635  128.8601 C   0  0  0  0  0  0  0  0  0  0  0  0
   10.3999   45.5741  130.2117 C   0  0  0  0  0  0  0  0  0  0  0  0
   10.9895   44.5687  134.3238 C   0  0  0  0  0  0  0  0  0  0  0  0
   11.1496   44.2857  135.4344 N   0  0  0  0  0  0  0  0  0  0  0  0
    6.8444   51.5900  128.8348 O   0  0  0  0  0  0  0  0  0  0  0  0
    6.4250   50.7385  129.8888 C   0  0  0  0  0  0  0  0  0  0  0  0
    5.3803   51.0994  130.4465 O   0  0  0  0  0  0  0  0  0  0  0  0
    6.6598   52.5667  128.8274 H   0  0  0  0  0  0  0  0  0  0  0  0
 21 22  1  0  0  0
 22 23  2  0  0  0
 22  1  1  0  0  0
  1  2  2  0  0  0
  2  3  1  0  0  0
  3  4  2  0  0  0
  4  5  1  0  0  0
  5  6  2  0  0  0
  6  7  1  0  0  0
  4  9  1  0  0  0
  9 10  2  0  0  0
 10 11  1  0  0  0
 11 12  2  0  0  0
 12 13  1  0  0  0
 13 14  2  0  0  0
 14 15  1  0  0  0
 15 16  2  0  0  0
 16 17  1  0  0  0
 17 18  2  0  0  0
 11 19  1  0  0  0
 19 20  3  0  0  0
  6  1  1  0  0  0
 18  9  1  0  0  0
 18 13  1  0  0  0
 21 24  1  0  0  0
  7  8  1  0  0  0
M  END
> <minimizedAffinity>
-7.70255

> <CNNscore>
0.5162562132

> <CNNaffinity>
6.6943283081

> <CNN_VS>
3.4559886456

> <CNNaffinity_variance>
0.5637925267

$$$$
[H]OC(=O)c1c([H])c([H])c(-c2c([H])c(C#N)c([H])c3c([H])c([H])c([H])c([H])c23)c([H])c1O[H]


 24 26  0  0  0  0  0  0  0  0999 V2000
   13.2174   44.5052  129.3473 C   0  0  0  0  0  0  0  0  0  0  0  0
   12.2895   45.0494  128.4347 C   0  0  0  0  0  0  0  0  0  0  0  0
   11.0402   45.4208  128.8300 C   0  0  0  0  0  0  0  0  0  0  0  0
   10.6259   45.2849  130.1266 C   0  0  0  0  0  0  0  0  0  0  0  0
   11.5033   44.7621  131.0267 C   0  0  0  0  0  0  0  0  0  0  0  0
   12.8051   44.3680  130.6460 C   0  0  0  0  0  0  0  0  0  0  0  0
   13.6311   43.8523  131.5985 O   0  0  0  0  0  0  0  0  0  0  0  0
   14.5332   43.5423  131.5016 H   0  0  0  0  0  0  0  0  0  0  0  0
    9.2910   45.6775  130.5684 C   0  0  0  0  0  0  0  0  0  0  0  0
    8.3890   46.2110  129.6410 C   0  0  0  0  0  0  0  0  0  0  0  0
    7.1408   46.6445  129.9967 C   0  0  0  0  0  0  0  0  0  0  0  0
    6.8066   46.5308  131.3268 C   0  0  0  0  0  0  0  0  0  0  0  0
    7.6613   46.0118  132.2724 C   0  0  0  0  0  0  0  0  0  0  0  0
    7.2705   45.9101  133.5847 C   0  0  0  0  0  0  0  0  0  0  0  0
    8.1133   45.3849  134.5094 C   0  0  0  0  0  0  0  0  0  0  0  0
    9.3698   44.9438  134.1597 C   0  0  0  0  0  0  0  0  0  0  0  0
    9.7926   45.0323  132.8499 C   0  0  0  0  0  0  0  0  0  0  0  0
    8.9360   45.5717  131.8914 C   0  0  0  0  0  0  0  0  0  0  0  0
    6.2108   47.1969  129.0278 C   0  0  0  0  0  0  0  0  0  0  0  0
    5.4756   47.6391  128.2513 N   0  0  0  0  0  0  0  0  0  0  0  0
   15.6625   44.7221  129.4781 O   0  0  0  0  0  0  0  0  0  0  0  0
   14.5298   44.1303  128.8627 C   0  0  0  0  0  0  0  0  0  0  0  0
   14.8042   43.3364  127.9532 O   0  0  0  0  0  0  0  0  0  0  0  0
   16.5113   44.8931  128.9897 H   0  0  0  0  0  0  0  0  0  0  0  0
 21 22  1  0  0  0
 22 23  2  0  0  0
 22  1  1  0  0  0
  1  2  2  0  0  0
  2  3  1  0  0  0
  3  4  2  0  0  0
  4  5  1  0  0  0
  5  6  2  0  0  0
  6  7  1  0  0  0
  4  9  1  0  0  0
  9 10  2  0  0  0
 10 11  1  0  0  0
 11 12  2  0  0  0
 12 13  1  0  0  0
 13 14  2  0  0  0
 14 15  1  0  0  0
 15 16  2  0  0  0
 16 17  1  0  0  0
 17 18  2  0  0  0
 11 19  1  0  0  0
 19 20  3  0  0  0
  6  1  1  0  0  0
 18  9  1  0  0  0
 18 13  1  0  0  0
 21 24  1  0  0  0
  7  8  1  0  0  0
M  END
> <minimizedAffinity>
1.41990

> <CNNscore>
0.4649278522

> <CNNaffinity>
6.3599853516

> <CNN_VS>
2.9569342136

> <CNNaffinity_variance>
1.7476409674

$$$$
[H]OC(=O)c1c([H])c([H])c(-c2c([H])c(C#N)c([H])c3c([H])c([H])c([H])c([H])c23)c([H])c1O[H]


 24 26  0  0  0  0  0  0  0  0999 V2000
    7.4330   49.6348  130.0395 C   0  0  0  0  0  0  0  0  0  0  0  0
    6.9257   48.4242  129.5226 C   0  0  0  0  0  0  0  0  0  0  0  0
    7.6269   47.2610  129.6228 C   0  0  0  0  0  0  0  0  0  0  0  0
    8.8529   47.2101  130.2274 C   0  0  0  0  0  0  0  0  0  0  0  0
    9.3643   48.3654  130.7344 C   0  0  0  0  0  0  0  0  0  0  0  0
    8.6602   49.5865  130.6453 C   0  0  0  0  0  0  0  0  0  0  0  0
    9.2313   50.7044  131.1741 O   0  0  0  0  0  0  0  0  0  0  0  0
    8.8855   51.5985  131.1942 H   0  0  0  0  0  0  0  0  0  0  0  0
    9.6189   45.9726  130.3440 C   0  0  0  0  0  0  0  0  0  0  0  0
    9.5787   45.0385  129.3028 C   0  0  0  0  0  0  0  0  0  0  0  0
   10.2324   43.8381  129.3679 C   0  0  0  0  0  0  0  0  0  0  0  0
   10.9420   43.5864  130.5199 C   0  0  0  0  0  0  0  0  0  0  0  0
   11.0097   44.4762  131.5677 C   0  0  0  0  0  0  0  0  0  0  0  0
   11.7435   44.1781  132.6892 C   0  0  0  0  0  0  0  0  0  0  0  0
   11.8170   45.0657  133.7129 C   0  0  0  0  0  0  0  0  0  0  0  0
   11.1647   46.2768  133.6545 C   0  0  0  0  0  0  0  0  0  0  0  0
   10.4189   46.6062  132.5421 C   0  0  0  0  0  0  0  0  0  0  0  0
   10.3348   45.7015  131.4848 C   0  0  0  0  0  0  0  0  0  0  0  0
   10.1855   42.8743  128.2828 C   0  0  0  0  0  0  0  0  0  0  0  0
   10.1429   42.1022  127.4219 N   0  0  0  0  0  0  0  0  0  0  0  0
    5.4422   50.9375  130.6579 O   0  0  0  0  0  0  0  0  0  0  0  0
    6.6371   50.8369  129.9002 C   0  0  0  0  0  0  0  0  0  0  0  0
    6.8679   51.8206  129.1849 O   0  0  0  0  0  0  0  0  0  0  0  0
    4.6477   51.4452  130.3431 H   0  0  0  0  0  0  0  0  0  0  0  0
 21 22  1  0  0  0
 22 23  2  0  0  0
 22  1  1  0  0  0
  1  2  2  0  0  0
  2  3  1  0  0  0
  3  4  2  0  0  0
  4  5  1  0  0  0
  5  6  2  0  0  0
  6  7  1  0  0  0
  4  9  1  0  0  0
  9 10  2  0  0  0
 10 11  1  0  0  0
 11 12  2  0  0  0
 12 13  1  0  0  0
 13 14  2  0  0  0
 14 15  1  0  0  0
 15 16  2  0  0  0
 16 17  1  0  0  0
 17 18  2  0  0  0
 11 19  1  0  0  0
 19 20  3  0  0  0
  6  1  1  0  0  0
 18  9  1  0  0  0
 18 13  1  0  0  0
 21 24  1  0  0  0
  7  8  1  0  0  0
M  END
> <minimizedAffinity>
-6.79603

> <CNNscore>
0.4640984535

> <CNNaffinity>
6.6629257202

> <CNN_VS>
3.0922534466

> <CNNaffinity_variance>
0.7335636020

$$$$
[H]OC(=O)c1c([H])c([H])c(-c2c([H])c(C#N)c([H])c3c([H])c([H])c([H])c([H])c23)c([H])c1O[H]


 24 26  0  0  0  0  0  0  0  0999 V2000
   12.1243   44.8682  129.1079 C   0  0  0  0  0  0  0  0  0  0  0  0
   11.1290   45.6272  128.4572 C   0  0  0  0  0  0  0  0  0  0  0  0
   10.2834   46.4350  129.1553 C   0  0  0  0  0  0  0  0  0  0  0  0
   10.3577   46.5493  130.5164 C   0  0  0  0  0  0  0  0  0  0  0  0
   11.3101   45.8267  131.1677 C   0  0  0  0  0  0  0  0  0  0  0  0
   12.2008   44.9807  130.4706 C   0  0  0  0  0  0  0  0  0  0  0  0
   13.1294   44.2865  131.1856 O   0  0  0  0  0  0  0  0  0  0  0  0
   13.7974   43.6785  130.8642 H   0  0  0  0  0  0  0  0  0  0  0  0
    9.4600   47.4099  131.2811 C   0  0  0  0  0  0  0  0  0  0  0  0
    8.7372   48.4095  130.6203 C   0  0  0  0  0  0  0  0  0  0  0  0
    7.9167   49.2817  131.2825 C   0  0  0  0  0  0  0  0  0  0  0  0
    7.8324   49.1300  132.6478 C   0  0  0  0  0  0  0  0  0  0  0  0
    8.5242   48.1610  133.3382 C   0  0  0  0  0  0  0  0  0  0  0  0
    8.3926   48.0472  134.7001 C   0  0  0  0  0  0  0  0  0  0  0  0
    9.0671   47.0808  135.3727 C   0  0  0  0  0  0  0  0  0  0  0  0
    9.8925   46.1974  134.7140 C   0  0  0  0  0  0  0  0  0  0  0  0
   10.0465   46.2854  133.3463 C   0  0  0  0  0  0  0  0  0  0  0  0
    9.3598   47.2753  132.6448 C   0  0  0  0  0  0  0  0  0  0  0  0
    7.1701   50.3163  130.5891 C   0  0  0  0  0  0  0  0  0  0  0  0
    6.5803   51.1406  130.0308 N   0  0  0  0  0  0  0  0  0  0  0  0
   12.4104   43.2904  127.2447 O   0  0  0  0  0  0  0  0  0  0  0  0
   12.9915   44.0287  128.3073 C   0  0  0  0  0  0  0  0  0  0  0  0
   14.2123   43.8638  128.4305 O   0  0  0  0  0  0  0  0  0  0  0  0
   12.7655   42.4122  126.9435 H   0  0  0  0  0  0  0  0  0  0  0  0
 21 22  1  0  0  0
 22 23  2  0  0  0
 22  1  1  0  0  0
  1  2  2  0  0  0
  2  3  1  0  0  0
  3  4  2  0  0  0
  4  5  1  0  0  0
  5  6  2  0  0  0
  6  7  1  0  0  0
  4  9  1  0  0  0
  9 10  2  0  0  0
 10 11  1  0  0  0
 11 12  2  0  0  0
 12 13  1  0  0  0
 13 14  2  0  0  0
 14 15  1  0  0  0
 15 16  2  0  0  0
 16 17  1  0  0  0
 17 18  2  0  0  0
 11 19  1  0  0  0
 19 20  3  0  0  0
  6  1  1  0  0  0
 18  9  1  0  0  0
 18 13  1  0  0  0
 21 24  1  0  0  0
  7  8  1  0  0  0
M  END
> <minimizedAffinity>
2.28093

> <CNNscore>
0.4544691741

> <CNNaffinity>
6.3031067848

> <CNN_VS>
2.8645677567

> <CNNaffinity_variance>
1.7173792124

$$$$
[H]OC(=O)c1c([H])c([H])c(-c2c([H])c(C#N)c([H])c3c([H])c([H])c([H])c([H])c23)c([H])c1O[H]


 24 26  0  0  0  0  0  0  0  0999 V2000
    9.8892   42.7380  130.6564 C   0  0  0  0  0  0  0  0  0  0  0  0
    8.5977   43.0726  131.1149 C   0  0  0  0  0  0  0  0  0  0  0  0
    8.2466   44.3644  131.3652 C   0  0  0  0  0  0  0  0  0  0  0  0
    9.1259   45.3967  131.1850 C   0  0  0  0  0  0  0  0  0  0  0  0
   10.3788   45.0996  130.7431 C   0  0  0  0  0  0  0  0  0  0  0  0
   10.7715   43.7696  130.4751 C   0  0  0  0  0  0  0  0  0  0  0  0
   12.0409   43.5442  130.0354 O   0  0  0  0  0  0  0  0  0  0  0  0
   12.4554   42.7091  129.8120 H   0  0  0  0  0  0  0  0  0  0  0  0
    8.7673   46.7873  131.4482 C   0  0  0  0  0  0  0  0  0  0  0  0
    8.3921   47.6139  130.3832 C   0  0  0  0  0  0  0  0  0  0  0  0
    8.0916   48.9382  130.5524 C   0  0  0  0  0  0  0  0  0  0  0  0
    8.1758   49.4284  131.8356 C   0  0  0  0  0  0  0  0  0  0  0  0
    8.5394   48.6517  132.9120 C   0  0  0  0  0  0  0  0  0  0  0  0
    8.5948   49.1907  134.1736 C   0  0  0  0  0  0  0  0  0  0  0  0
    8.9409   48.4160  135.2324 C   0  0  0  0  0  0  0  0  0  0  0  0
    9.2421   47.0822  135.0716 C   0  0  0  0  0  0  0  0  0  0  0  0
    9.1961   46.5106  133.8173 C   0  0  0  0  0  0  0  0  0  0  0  0
    8.8434   47.2971  132.7217 C   0  0  0  0  0  0  0  0  0  0  0  0
    7.7032   49.7891  129.4417 C   0  0  0  0  0  0  0  0  0  0  0  0
    7.4000   50.4713  128.5575 N   0  0  0  0  0  0  0  0  0  0  0  0
    9.8006   40.7828  129.1691 O   0  0  0  0  0  0  0  0  0  0  0  0
   10.1989   41.3449  130.4090 C   0  0  0  0  0  0  0  0  0  0  0  0
   10.7839   40.5531  131.1597 O   0  0  0  0  0  0  0  0  0  0  0  0
    9.5594   39.8238  129.0667 H   0  0  0  0  0  0  0  0  0  0  0  0
 21 22  1  0  0  0
 22 23  2  0  0  0
 22  1  1  0  0  0
  1  2  2  0  0  0
  2  3  1  0  0  0
  3  4  2  0  0  0
  4  5  1  0  0  0
  5  6  2  0  0  0
  6  7  1  0  0  0
  4  9  1  0  0  0
  9 10  2  0  0  0
 10 11  1  0  0  0
 11 12  2  0  0  0
 12 13  1  0  0  0
 13 14  2  0  0  0
 14 15  1  0  0  0
 15 16  2  0  0  0
 16 17  1  0  0  0
 17 18  2  0  0  0
 11 19  1  0  0  0
 19 20  3  0  0  0
  6  1  1  0  0  0
 18  9  1  0  0  0
 18 13  1  0  0  0
 21 24  1  0  0  0
  7  8  1  0  0  0
M  END
> <minimizedAffinity>
3.21631

> <CNNscore>
0.4506601691

> <CNNaffinity>
6.8094472885

> <CNN_VS>
3.0687465668

> <CNNaffinity_variance>
2.8644011021

$$$$
[H]OC(=O)c1c([H])c([H])c(-c2c([H])c(C#N)c([H])c3c([H])c([H])c([H])c([H])c23)c([H])c1O[H]


 24 26  0  0  0  0  0  0  0  0999 V2000
    7.3965   49.3421  130.1899 C   0  0  0  0  0  0  0  0  0  0  0  0
    6.8118   48.0941  129.8890 C   0  0  0  0  0  0  0  0  0  0  0  0
    7.4402   46.9247  130.1930 C   0  0  0  0  0  0  0  0  0  0  0  0
    8.6645   46.9034  130.8028 C   0  0  0  0  0  0  0  0  0  0  0  0
    9.2498   48.0951  131.1035 C   0  0  0  0  0  0  0  0  0  0  0  0
    8.6223   49.3236  130.8003 C   0  0  0  0  0  0  0  0  0  0  0  0
    9.2650   50.4787  131.1293 O   0  0  0  0  0  0  0  0  0  0  0  0
    8.9755   51.3824  130.9922 H   0  0  0  0  0  0  0  0  0  0  0  0
    9.3529   45.6598  131.1361 C   0  0  0  0  0  0  0  0  0  0  0  0
    9.8416   45.4710  132.4337 C   0  0  0  0  0  0  0  0  0  0  0  0
   10.5384   44.3517  132.8001 C   0  0  0  0  0  0  0  0  0  0  0  0
   10.7402   43.4056  131.8212 C   0  0  0  0  0  0  0  0  0  0  0  0
   10.2768   43.5493  130.5333 C   0  0  0  0  0  0  0  0  0  0  0  0
   10.4964   42.5668  129.5997 C   0  0  0  0  0  0  0  0  0  0  0  0
   10.0249   42.7090  128.3353 C   0  0  0  0  0  0  0  0  0  0  0  0
    9.3206   43.8305  127.9590 C   0  0  0  0  0  0  0  0  0  0  0  0
    9.0835   44.8357  128.8731 C   0  0  0  0  0  0  0  0  0  0  0  0
    9.5644   44.7015  130.1746 C   0  0  0  0  0  0  0  0  0  0  0  0
   11.0423   44.1637  134.1489 C   0  0  0  0  0  0  0  0  0  0  0  0
   11.4421   44.0066  135.2234 N   0  0  0  0  0  0  0  0  0  0  0  0
    7.1391   51.3054  128.7333 O   0  0  0  0  0  0  0  0  0  0  0  0
    6.6760   50.5489  129.8402 C   0  0  0  0  0  0  0  0  0  0  0  0
    5.6772   51.0240  130.3963 O   0  0  0  0  0  0  0  0  0  0  0  0
    7.0344   52.2923  128.6756 H   0  0  0  0  0  0  0  0  0  0  0  0
 21 22  1  0  0  0
 22 23  2  0  0  0
 22  1  1  0  0  0
  1  2  2  0  0  0
  2  3  1  0  0  0
  3  4  2  0  0  0
  4  5  1  0  0  0
  5  6  2  0  0  0
  6  7  1  0  0  0
  4  9  1  0  0  0
  9 10  2  0  0  0
 10 11  1  0  0  0
 11 12  2  0  0  0
 12 13  1  0  0  0
 13 14  2  0  0  0
 14 15  1  0  0  0
 15 16  2  0  0  0
 16 17  1  0  0  0
 17 18  2  0  0  0
 11 19  1  0  0  0
 19 20  3  0  0  0
  6  1  1  0  0  0
 18  9  1  0  0  0
 18 13  1  0  0  0
 21 24  1  0  0  0
  7  8  1  0  0  0
M  END
> <minimizedAffinity>
-7.29107

> <CNNscore>
0.4479452670

> <CNNaffinity>
6.6730356216

> <CNN_VS>
2.9891548157

> <CNNaffinity_variance>
0.6653205156

$$$$
[H]OC(=O)c1c([H])c([H])c(-c2c([H])c(C#N)c([H])c3c([H])c([H])c([H])c([H])c23)c([H])c1O[H]


 24 26  0  0  0  0  0  0  0  0999 V2000
   10.2939   45.0724  128.6020 C   0  0  0  0  0  0  0  0  0  0  0  0
    9.5007   46.2010  128.8970 C   0  0  0  0  0  0  0  0  0  0  0  0
    9.4769   46.7445  130.1455 C   0  0  0  0  0  0  0  0  0  0  0  0
   10.2185   46.2244  131.1707 C   0  0  0  0  0  0  0  0  0  0  0  0
   10.9924   45.1348  130.9112 C   0  0  0  0  0  0  0  0  0  0  0  0
   11.0372   44.5496  129.6265 C   0  0  0  0  0  0  0  0  0  0  0  0
   11.8334   43.4607  129.4374 O   0  0  0  0  0  0  0  0  0  0  0  0
   11.9717   42.9550  128.6346 H   0  0  0  0  0  0  0  0  0  0  0  0
   10.2056   46.7935  132.5151 C   0  0  0  0  0  0  0  0  0  0  0  0
    9.0672   47.4729  132.9632 C   0  0  0  0  0  0  0  0  0  0  0  0
    9.0061   48.0721  134.1919 C   0  0  0  0  0  0  0  0  0  0  0  0
   10.1306   47.9753  134.9794 C   0  0  0  0  0  0  0  0  0  0  0  0
   11.2709   47.3165  134.5797 C   0  0  0  0  0  0  0  0  0  0  0  0
   12.3602   47.2404  135.4121 C   0  0  0  0  0  0  0  0  0  0  0  0
   13.4763   46.5776  135.0170 C   0  0  0  0  0  0  0  0  0  0  0  0
   13.5453   45.9696  133.7836 C   0  0  0  0  0  0  0  0  0  0  0  0
   12.4684   46.0282  132.9239 C   0  0  0  0  0  0  0  0  0  0  0  0
   11.3169   46.7077  133.3184 C   0  0  0  0  0  0  0  0  0  0  0  0
    7.8208   48.7753  134.6492 C   0  0  0  0  0  0  0  0  0  0  0  0
    6.8774   49.3411  135.0084 N   0  0  0  0  0  0  0  0  0  0  0  0
    9.0141   44.2713  126.6622 O   0  0  0  0  0  0  0  0  0  0  0  0
   10.2742   44.5430  127.2539 C   0  0  0  0  0  0  0  0  0  0  0  0
   11.2418   44.2877  126.5252 O   0  0  0  0  0  0  0  0  0  0  0  0
    8.8792   43.5479  125.9938 H   0  0  0  0  0  0  0  0  0  0  0  0
 21 22  1  0  0  0
 22 23  2  0  0  0
 22  1  1  0  0  0
  1  2  2  0  0  0
  2  3  1  0  0  0
  3  4  2  0  0  0
  4  5  1  0  0  0
  5  6  2  0  0  0
  6  7  1  0  0  0
  4  9  1  0  0  0
  9 10  2  0  0  0
 10 11  1  0  0  0
 11 12  2  0  0  0
 12 13  1  0  0  0
 13 14  2  0  0  0
 14 15  1  0  0  0
 15 16  2  0  0  0
 16 17  1  0  0  0
 17 18  2  0  0  0
 11 19  1  0  0  0
 19 20  3  0  0  0
  6  1  1  0  0  0
 18  9  1  0  0  0
 18 13  1  0  0  0
 21 24  1  0  0  0
  7  8  1  0  0  0
M  END
> <minimizedAffinity>
17.78296

> <CNNscore>
0.4450060129

> <CNNaffinity>
6.5528268814

> <CNN_VS>
2.9160473347

> <CNNaffinity_variance>
6.0605530739

$$$$
[H]OC(=O)c1c([H])c([H])c(-c2c([H])c(C#N)c([H])c3c([H])c([H])c([H])c([H])c23)c([H])c1O[H]


 24 26  0  0  0  0  0  0  0  0999 V2000
   10.8308   44.7107  132.9812 C   0  0  0  0  0  0  0  0  0  0  0  0
   10.1112   45.7034  133.6788 C   0  0  0  0  0  0  0  0  0  0  0  0
    9.1443   46.4411  133.0658 C   0  0  0  0  0  0  0  0  0  0  0  0
    8.8248   46.2560  131.7487 C   0  0  0  0  0  0  0  0  0  0  0  0
    9.5053   45.3036  131.0535 C   0  0  0  0  0  0  0  0  0  0  0  0
   10.5130   44.5233  131.6623 C   0  0  0  0  0  0  0  0  0  0  0  0
   11.1538   43.5879  130.9074 O   0  0  0  0  0  0  0  0  0  0  0  0
   11.8522   42.9857  131.1699 H   0  0  0  0  0  0  0  0  0  0  0  0
    7.7916   47.0371  131.0751 C   0  0  0  0  0  0  0  0  0  0  0  0
    6.6054   46.4102  130.6775 C   0  0  0  0  0  0  0  0  0  0  0  0
    5.6177   47.0709  129.9989 C   0  0  0  0  0  0  0  0  0  0  0  0
    5.8459   48.3992  129.7208 C   0  0  0  0  0  0  0  0  0  0  0  0
    6.9966   49.0559  130.0934 C   0  0  0  0  0  0  0  0  0  0  0  0
    7.1660   50.3865  129.8004 C   0  0  0  0  0  0  0  0  0  0  0  0
    8.2972   51.0311  130.1827 C   0  0  0  0  0  0  0  0  0  0  0  0
    9.2947   50.3747  130.8682 C   0  0  0  0  0  0  0  0  0  0  0  0
    9.1552   49.0379  131.1775 C   0  0  0  0  0  0  0  0  0  0  0  0
    7.9981   48.3648  130.7884 C   0  0  0  0  0  0  0  0  0  0  0  0
    4.3896   46.4127  129.5898 C   0  0  0  0  0  0  0  0  0  0  0  0
    3.4133   45.8818  129.2673 N   0  0  0  0  0  0  0  0  0  0  0  0
   11.6460   43.7087  135.0726 O   0  0  0  0  0  0  0  0  0  0  0  0
   11.8466   43.9613  133.6914 C   0  0  0  0  0  0  0  0  0  0  0  0
   12.9012   43.4964  133.2392 O   0  0  0  0  0  0  0  0  0  0  0  0
   12.3974   43.6218  135.7176 H   0  0  0  0  0  0  0  0  0  0  0  0
 21 22  1  0  0  0
 22 23  2  0  0  0
 22  1  1  0  0  0
  1  2  2  0  0  0
  2  3  1  0  0  0
  3  4  2  0  0  0
  4  5  1  0  0  0
  5  6  2  0  0  0
  6  7  1  0  0  0
  4  9  1  0  0  0
  9 10  2  0  0  0
 10 11  1  0  0  0
 11 12  2  0  0  0
 12 13  1  0  0  0
 13 14  2  0  0  0
 14 15  1  0  0  0
 15 16  2  0  0  0
 16 17  1  0  0  0
 17 18  2  0  0  0
 11 19  1  0  0  0
 19 20  3  0  0  0
  6  1  1  0  0  0
 18  9  1  0  0  0
 18 13  1  0  0  0
 21 24  1  0  0  0
  7  8  1  0  0  0
M  END
> <minimizedAffinity>
-0.73663

> <CNNscore>
0.4323682785

> <CNNaffinity>
6.5206604004

> <CNN_VS>
2.8193266392

> <CNNaffinity_variance>
1.5593152046

$$$$
[H]C1=C2C([H])([H])C([H])([H])[C@]3([H])[C@]([H])(C([H])([H])C([H])([H])[C@]4(C([H])([H])[H])C([H])([H])C([H])([H])C(=O)[C@]([H])(C([H])([H])C([H])([H])[H])C([H])([H])[C@@]34[H])[C@@]2(C([H])([H])[H])C([H])([H])C([H])([H])C1=O


 25 28  0  0  0  0  0  0  0  0999 V2000
   11.7190   44.0597  132.4825 C   0  0  0  0  0  0  0  0  0  0  0  0
   10.7070   45.1223  132.4137 C   0  0  0  0  0  0  0  0  0  0  0  0
    9.5529   45.0546  131.5373 C   0  0  0  0  0  0  0  0  0  0  0  0
    9.1759   46.5014  131.1806 C   0  0  0  0  0  0  0  0  0  0  0  0
    9.0826   47.3600  132.4215 C   0  0  0  0  0  0  0  0  0  0  0  0
    9.2186   48.8051  131.9557 C   0  0  0  0  0  0  0  0  0  0  0  0
    8.2449   49.0613  130.8634 C   0  0  0  0  0  0  0  0  0  0  0  0
    7.8013   50.3005  130.7586 C   0  0  0  0  0  0  0  0  0  0  0  0
    6.8460   50.6581  129.7247 C   0  0  0  0  0  0  0  0  0  0  0  0
    6.7437   51.8398  129.3555 O   0  0  0  0  0  0  0  0  0  0  0  0
    5.9868   49.6226  129.1018 C   0  0  0  0  0  0  0  0  0  0  0  0
    6.2716   48.2570  129.7052 C   0  0  0  0  0  0  0  0  0  0  0  0
    7.7700   48.0526  129.9251 C   0  0  0  0  0  0  0  0  0  0  0  0
    8.5169   48.2641  128.6160 C   0  0  0  0  0  0  0  0  0  0  0  0
    7.9294   46.6353  130.4245 C   0  0  0  0  0  0  0  0  0  0  0  0
    7.8150   45.7369  129.2223 C   0  0  0  0  0  0  0  0  0  0  0  0
    8.1866   44.3682  129.6443 C   0  0  0  0  0  0  0  0  0  0  0  0
    9.5746   44.2658  130.3016 C   0  0  0  0  0  0  0  0  0  0  0  0
   10.6230   44.6347  129.3015 C   0  0  0  0  0  0  0  0  0  0  0  0
    9.6155   42.7481  130.5428 C   0  0  0  0  0  0  0  0  0  0  0  0
   10.9961   42.2330  130.7693 C   0  0  0  0  0  0  0  0  0  0  0  0
   11.3051   42.7009  132.1720 C   0  0  0  0  0  0  0  0  0  0  0  0
   11.1726   41.8333  132.9966 O   0  0  0  0  0  0  0  0  0  0  0  0
   11.4111   44.4324  134.9468 C   0  0  0  0  0  0  0  0  0  0  0  0
   12.3509   43.9963  133.8854 C   0  0  0  0  0  0  0  0  0  0  0  0
 24 25  1  0  0  0
 25  1  1  0  0  0
  1  2  1  0  0  0
  2  3  1  0  0  0
  3  4  1  0  0  0
  4  5  1  0  0  0
  5  6  1  0  0  0
  6  7  1  0  0  0
  7  8  2  0  0  0
  8  9  1  0  0  0
  9 10  2  0  0  0
  9 11  1  0  0  0
 11 12  1  0  0  0
 12 13  1  0  0  0
 13 14  1  0  0  0
 13 15  1  0  0  0
 15 16  1  0  0  0
 16 17  1  0  0  0
 17 18  1  0  0  0
 18 19  1  0  0  0
 18 20  1  0  0  0
 20 21  1  0  0  0
 21 22  1  0  0  0
 22 23  2  0  0  0
 22  1  1  0  0  0
 18  3  1  0  0  0
 15  4  1  0  0  0
 13  7  1  0  0  0
M  END
> <minimizedAffinity>
-7.16374

> <CNNscore>
0.6076064110

> <CNNaffinity>
7.8909635544

> <CNN_VS>
4.7946000099

> <CNNaffinity_variance>
0.5368995667

$$$$
[H]C1=C2C([H])([H])C([H])([H])[C@]3([H])[C@]([H])(C([H])([H])C([H])([H])[C@]4(C([H])([H])[H])C([H])([H])C([H])([H])C(=O)[C@]([H])(C([H])([H])C([H])([H])[H])C([H])([H])[C@@]34[H])[C@@]2(C([H])([H])[H])C([H])([H])C([H])([H])C1=O


 25 28  0  0  0  0  0  0  0  0999 V2000
    6.5188   48.3505  129.0935 C   0  0  0  0  0  0  0  0  0  0  0  0
    7.1075   47.3495  129.9932 C   0  0  0  0  0  0  0  0  0  0  0  0
    8.0127   47.6968  131.0723 C   0  0  0  0  0  0  0  0  0  0  0  0
    8.9426   46.4911  131.2825 C   0  0  0  0  0  0  0  0  0  0  0  0
    8.1507   45.2083  131.3977 C   0  0  0  0  0  0  0  0  0  0  0  0
    9.1219   44.0744  131.0900 C   0  0  0  0  0  0  0  0  0  0  0  0
   10.3300   44.2195  131.9422 C   0  0  0  0  0  0  0  0  0  0  0  0
   10.9564   43.1009  132.2586 C   0  0  0  0  0  0  0  0  0  0  0  0
   12.1482   43.1310  133.0880 C   0  0  0  0  0  0  0  0  0  0  0  0
   12.9558   42.1878  133.0493 O   0  0  0  0  0  0  0  0  0  0  0  0
   12.4132   44.2813  133.9854 C   0  0  0  0  0  0  0  0  0  0  0  0
   11.2996   45.3102  133.8795 C   0  0  0  0  0  0  0  0  0  0  0  0
   10.8507   45.4901  132.4298 C   0  0  0  0  0  0  0  0  0  0  0  0
   12.0464   45.8532  131.5610 C   0  0  0  0  0  0  0  0  0  0  0  0
    9.8263   46.6010  132.4446 C   0  0  0  0  0  0  0  0  0  0  0  0
   10.5906   47.8939  132.5424 C   0  0  0  0  0  0  0  0  0  0  0  0
    9.6319   49.0021  132.3357 C   0  0  0  0  0  0  0  0  0  0  0  0
    8.8349   48.9097  131.0221 C   0  0  0  0  0  0  0  0  0  0  0  0
    9.7751   49.0223  129.8651 C   0  0  0  0  0  0  0  0  0  0  0  0
    8.0211   50.2084  131.1425 C   0  0  0  0  0  0  0  0  0  0  0  0
    7.4590   50.6644  129.8392 C   0  0  0  0  0  0  0  0  0  0  0  0
    6.3224   49.6974  129.6048 C   0  0  0  0  0  0  0  0  0  0  0  0
    5.2465   50.1600  129.8850 O   0  0  0  0  0  0  0  0  0  0  0  0
    4.5284   46.8673  129.4742 C   0  0  0  0  0  0  0  0  0  0  0  0
    5.1397   47.8877  128.5881 C   0  0  0  0  0  0  0  0  0  0  0  0
 24 25  1  0  0  0
 25  1  1  0  0  0
  1  2  1  0  0  0
  2  3  1  0  0  0
  3  4  1  0  0  0
  4  5  1  0  0  0
  5  6  1  0  0  0
  6  7  1  0  0  0
  7  8  2  0  0  0
  8  9  1  0  0  0
  9 10  2  0  0  0
  9 11  1  0  0  0
 11 12  1  0  0  0
 12 13  1  0  0  0
 13 14  1  0  0  0
 13 15  1  0  0  0
 15 16  1  0  0  0
 16 17  1  0  0  0
 17 18  1  0  0  0
 18 19  1  0  0  0
 18 20  1  0  0  0
 20 21  1  0  0  0
 21 22  1  0  0  0
 22 23  2  0  0  0
 22  1  1  0  0  0
 18  3  1  0  0  0
 15  4  1  0  0  0
 13  7  1  0  0  0
M  END
> <minimizedAffinity>
-6.87271

> <CNNscore>
0.5767969489

> <CNNaffinity>
7.7374010086

> <CNN_VS>
4.4629092216

> <CNNaffinity_variance>
0.4810110927

$$$$
[H]C1=C2C([H])([H])C([H])([H])[C@]3([H])[C@]([H])(C([H])([H])C([H])([H])[C@]4(C([H])([H])[H])C([H])([H])C([H])([H])C(=O)[C@]([H])(C([H])([H])C([H])([H])[H])C([H])([H])[C@@]34[H])[C@@]2(C([H])([H])[H])C([H])([H])C([H])([H])C1=O


 25 28  0  0  0  0  0  0  0  0999 V2000
    8.1684   49.3166  129.5699 C   0  0  0  0  0  0  0  0  0  0  0  0
    8.1871   47.9008  129.9613 C   0  0  0  0  0  0  0  0  0  0  0  0
    8.5281   47.4587  131.3002 C   0  0  0  0  0  0  0  0  0  0  0  0
    9.1444   46.0570  131.1657 C   0  0  0  0  0  0  0  0  0  0  0  0
    8.2729   45.1599  130.3161 C   0  0  0  0  0  0  0  0  0  0  0  0
    9.1686   44.0270  129.8285 C   0  0  0  0  0  0  0  0  0  0  0  0
    9.8626   43.4162  130.9912 C   0  0  0  0  0  0  0  0  0  0  0  0
   10.1698   42.1369  130.8788 C   0  0  0  0  0  0  0  0  0  0  0  0
   10.8493   41.4429  131.9587 C   0  0  0  0  0  0  0  0  0  0  0  0
   11.4950   40.4081  131.7226 O   0  0  0  0  0  0  0  0  0  0  0  0
   10.7804   41.9585  133.3472 C   0  0  0  0  0  0  0  0  0  0  0  0
    9.9376   43.2218  133.4077 C   0  0  0  0  0  0  0  0  0  0  0  0
   10.2180   44.1299  132.2109 C   0  0  0  0  0  0  0  0  0  0  0  0
   11.7061   44.4407  132.1369 C   0  0  0  0  0  0  0  0  0  0  0  0
    9.4067   45.3842  132.4392 C   0  0  0  0  0  0  0  0  0  0  0  0
   10.1577   46.2078  133.4508 C   0  0  0  0  0  0  0  0  0  0  0  0
    9.5053   47.5338  133.5275 C   0  0  0  0  0  0  0  0  0  0  0  0
    9.3904   48.2593  132.1749 C   0  0  0  0  0  0  0  0  0  0  0  0
   10.7607   48.5581  131.6569 C   0  0  0  0  0  0  0  0  0  0  0  0
    8.7346   49.5637  132.6564 C   0  0  0  0  0  0  0  0  0  0  0  0
    8.8735   50.6794  131.6772 C   0  0  0  0  0  0  0  0  0  0  0  0
    7.8853   50.3058  130.5974 C   0  0  0  0  0  0  0  0  0  0  0  0
    6.8477   50.9114  130.6800 O   0  0  0  0  0  0  0  0  0  0  0  0
    6.9482   51.0055  128.1681 C   0  0  0  0  0  0  0  0  0  0  0  0
    7.1356   49.5622  128.4544 C   0  0  0  0  0  0  0  0  0  0  0  0
 24 25  1  0  0  0
 25  1  1  0  0  0
  1  2  1  0  0  0
  2  3  1  0  0  0
  3  4  1  0  0  0
  4  5  1  0  0  0
  5  6  1  0  0  0
  6  7  1  0  0  0
  7  8  2  0  0  0
  8  9  1  0  0  0
  9 10  2  0  0  0
  9 11  1  0  0  0
 11 12  1  0  0  0
 12 13  1  0  0  0
 13 14  1  0  0  0
 13 15  1  0  0  0
 15 16  1  0  0  0
 16 17  1  0  0  0
 17 18  1  0  0  0
 18 19  1  0  0  0
 18 20  1  0  0  0
 20 21  1  0  0  0
 21 22  1  0  0  0
 22 23  2  0  0  0
 22  1  1  0  0  0
 18  3  1  0  0  0
 15  4  1  0  0  0
 13  7  1  0  0  0
M  END
> <minimizedAffinity>
-2.00744

> <CNNscore>
0.5709322095

> <CNNaffinity>
7.7658553123

> <CNN_VS>
4.4337768555

> <CNNaffinity_variance>
1.1428512335

$$$$
[H]C1=C2C([H])([H])C([H])([H])[C@]3([H])[C@]([H])(C([H])([H])C([H])([H])[C@]4(C([H])([H])[H])C([H])([H])C([H])([H])C(=O)[C@]([H])(C([H])([H])C([H])([H])[H])C([H])([H])[C@@]34[H])[C@@]2(C([H])([H])[H])C([H])([H])C([H])([H])C1=O


 25 28  0  0  0  0  0  0  0  0999 V2000
    9.2987   42.6630  130.3321 C   0  0  0  0  0  0  0  0  0  0  0  0
    9.3388   44.0803  129.9475 C   0  0  0  0  0  0  0  0  0  0  0  0
    9.6284   45.1439  130.8905 C   0  0  0  0  0  0  0  0  0  0  0  0
    8.8979   46.3994  130.3879 C   0  0  0  0  0  0  0  0  0  0  0  0
    9.1836   46.6441  128.9235 C   0  0  0  0  0  0  0  0  0  0  0  0
    8.0661   47.5459  128.4122 C   0  0  0  0  0  0  0  0  0  0  0  0
    7.9477   48.7307  129.3005 C   0  0  0  0  0  0  0  0  0  0  0  0
    7.5100   49.8405  128.7345 C   0  0  0  0  0  0  0  0  0  0  0  0
    7.3580   51.0567  129.5137 C   0  0  0  0  0  0  0  0  0  0  0  0
    6.5870   51.9503  129.1260 O   0  0  0  0  0  0  0  0  0  0  0  0
    8.1171   51.2445  130.7735 C   0  0  0  0  0  0  0  0  0  0  0  0
    8.9992   50.0385  131.0516 C   0  0  0  0  0  0  0  0  0  0  0  0
    8.2726   48.7354  130.7209 C   0  0  0  0  0  0  0  0  0  0  0  0
    6.9588   48.6690  131.4865 C   0  0  0  0  0  0  0  0  0  0  0  0
    9.2052   47.6206  131.1346 C   0  0  0  0  0  0  0  0  0  0  0  0
    9.0948   47.4961  132.6306 C   0  0  0  0  0  0  0  0  0  0  0  0
    9.8230   46.2737  133.0370 C   0  0  0  0  0  0  0  0  0  0  0  0
    9.3539   44.9934  132.3229 C   0  0  0  0  0  0  0  0  0  0  0  0
    7.9340   44.7115  132.6968 C   0  0  0  0  0  0  0  0  0  0  0  0
   10.2733   43.9779  133.0208 C   0  0  0  0  0  0  0  0  0  0  0  0
    9.7917   42.5730  132.8901 C   0  0  0  0  0  0  0  0  0  0  0  0
   10.1189   42.2361  131.4543 C   0  0  0  0  0  0  0  0  0  0  0  0
   11.1234   41.5815  131.3424 O   0  0  0  0  0  0  0  0  0  0  0  0
   10.2069   42.5456  127.9937 C   0  0  0  0  0  0  0  0  0  0  0  0
    9.7039   41.7637  129.1495 C   0  0  0  0  0  0  0  0  0  0  0  0
 24 25  1  0  0  0
 25  1  1  0  0  0
  1  2  1  0  0  0
  2  3  1  0  0  0
  3  4  1  0  0  0
  4  5  1  0  0  0
  5  6  1  0  0  0
  6  7  1  0  0  0
  7  8  2  0  0  0
  8  9  1  0  0  0
  9 10  2  0  0  0
  9 11  1  0  0  0
 11 12  1  0  0  0
 12 13  1  0  0  0
 13 14  1  0  0  0
 13 15  1  0  0  0
 15 16  1  0  0  0
 16 17  1  0  0  0
 17 18  1  0  0  0
 18 19  1  0  0  0
 18 20  1  0  0  0
 20 21  1  0  0  0
 21 22  1  0  0  0
 22 23  2  0  0  0
 22  1  1  0  0  0
 18  3  1  0  0  0
 15  4  1  0  0  0
 13  7  1  0  0  0
M  END
> <minimizedAffinity>
-1.18166

> <CNNscore>
0.5685108900

> <CNNaffinity>
7.7672781944

> <CNN_VS>
4.4157824516

> <CNNaffinity_variance>
1.2767817974

$$$$
[H]C1=C2C([H])([H])C([H])([H])[C@]3([H])[C@]([H])(C([H])([H])C([H])([H])[C@]4(C([H])([H])[H])C([H])([H])C([H])([H])C(=O)[C@]([H])(C([H])([H])C([H])([H])[H])C([H])([H])[C@@]34[H])[C@@]2(C([H])([H])[H])C([H])([H])C([H])([H])C1=O


 25 28  0  0  0  0  0  0  0  0999 V2000
   10.6669   43.2329  132.6180 C   0  0  0  0  0  0  0  0  0  0  0  0
   10.0409   44.1684  131.6740 C   0  0  0  0  0  0  0  0  0  0  0  0
   10.4094   45.5691  131.5929 C   0  0  0  0  0  0  0  0  0  0  0  0
    9.1633   46.3333  131.1177 C   0  0  0  0  0  0  0  0  0  0  0  0
    8.5593   45.6804  129.8952 C   0  0  0  0  0  0  0  0  0  0  0  0
    7.1161   46.1651  129.8176 C   0  0  0  0  0  0  0  0  0  0  0  0
    7.0931   47.6486  129.8912 C   0  0  0  0  0  0  0  0  0  0  0  0
    6.0944   48.2463  129.2676 C   0  0  0  0  0  0  0  0  0  0  0  0
    5.9784   49.6941  129.2771 C   0  0  0  0  0  0  0  0  0  0  0  0
    4.8767   50.2302  129.0721 O   0  0  0  0  0  0  0  0  0  0  0  0
    7.1670   50.5437  129.5302 C   0  0  0  0  0  0  0  0  0  0  0  0
    8.4022   49.6852  129.7467 C   0  0  0  0  0  0  0  0  0  0  0  0
    8.0786   48.4573  130.5969 C   0  0  0  0  0  0  0  0  0  0  0  0
    7.4494   48.8924  131.9127 C   0  0  0  0  0  0  0  0  0  0  0  0
    9.3939   47.7493  130.8258 C   0  0  0  0  0  0  0  0  0  0  0  0
   10.1144   48.5121  131.9050 C   0  0  0  0  0  0  0  0  0  0  0  0
   11.2986   47.7196  132.3044 C   0  0  0  0  0  0  0  0  0  0  0  0
   10.9754   46.2802  132.7435 C   0  0  0  0  0  0  0  0  0  0  0  0
   10.1308   46.3179  133.9766 C   0  0  0  0  0  0  0  0  0  0  0  0
   12.3937   45.8173  133.1141 C   0  0  0  0  0  0  0  0  0  0  0  0
   12.4005   44.6121  133.9916 C   0  0  0  0  0  0  0  0  0  0  0  0
   12.0330   43.4988  133.0389 C   0  0  0  0  0  0  0  0  0  0  0  0
   12.9862   42.8619  132.6703 O   0  0  0  0  0  0  0  0  0  0  0  0
   10.2301   41.7586  130.6324 C   0  0  0  0  0  0  0  0  0  0  0  0
   10.6740   41.8027  132.0471 C   0  0  0  0  0  0  0  0  0  0  0  0
 24 25  1  0  0  0
 25  1  1  0  0  0
  1  2  1  0  0  0
  2  3  1  0  0  0
  3  4  1  0  0  0
  4  5  1  0  0  0
  5  6  1  0  0  0
  6  7  1  0  0  0
  7  8  2  0  0  0
  8  9  1  0  0  0
  9 10  2  0  0  0
  9 11  1  0  0  0
 11 12  1  0  0  0
 12 13  1  0  0  0
 13 14  1  0  0  0
 13 15  1  0  0  0
 15 16  1  0  0  0
 16 17  1  0  0  0
 17 18  1  0  0  0
 18 19  1  0  0  0
 18 20  1  0  0  0
 20 21  1  0  0  0
 21 22  1  0  0  0
 22 23  2  0  0  0
 22  1  1  0  0  0
 18  3  1  0  0  0
 15  4  1  0  0  0
 13  7  1  0  0  0
M  END
> <minimizedAffinity>
-5.33523

> <CNNscore>
0.5472831130

> <CNNaffinity>
7.8757538795

> <CNN_VS>
4.3102669716

> <CNNaffinity_variance>
1.1987403631

$$$$
[H]C1=C2C([H])([H])C([H])([H])[C@]3([H])[C@]([H])(C([H])([H])C([H])([H])[C@]4(C([H])([H])[H])C([H])([H])C([H])([H])C(=O)[C@]([H])(C([H])([H])C([H])([H])[H])C([H])([H])[C@@]34[H])[C@@]2(C([H])([H])[H])C([H])([H])C([H])([H])C1=O


 25 28  0  0  0  0  0  0  0  0999 V2000
    9.7534   45.9560  128.2418 C   0  0  0  0  0  0  0  0  0  0  0  0
   10.0499   46.4079  129.6078 C   0  0  0  0  0  0  0  0  0  0  0  0
   10.3096   45.4907  130.7013 C   0  0  0  0  0  0  0  0  0  0  0  0
    9.8536   46.1911  131.9913 C   0  0  0  0  0  0  0  0  0  0  0  0
   10.4218   47.5894  132.0799 C   0  0  0  0  0  0  0  0  0  0  0  0
    9.5423   48.3491  133.0663 C   0  0  0  0  0  0  0  0  0  0  0  0
    9.4300   47.5679  134.3248 C   0  0  0  0  0  0  0  0  0  0  0  0
    9.2512   48.2680  135.4299 C   0  0  0  0  0  0  0  0  0  0  0  0
    9.1294   47.6018  136.7148 C   0  0  0  0  0  0  0  0  0  0  0  0
    8.5651   48.1759  137.6610 O   0  0  0  0  0  0  0  0  0  0  0  0
    9.6740   46.2367  136.9105 C   0  0  0  0  0  0  0  0  0  0  0  0
   10.3240   45.7315  135.6329 C   0  0  0  0  0  0  0  0  0  0  0  0
    9.4985   46.1145  134.4052 C   0  0  0  0  0  0  0  0  0  0  0  0
    8.0741   45.6017  134.5611 C   0  0  0  0  0  0  0  0  0  0  0  0
   10.1861   45.4724  133.2227 C   0  0  0  0  0  0  0  0  0  0  0  0
    9.7996   44.0177  133.2342 C   0  0  0  0  0  0  0  0  0  0  0  0
   10.2747   43.4141  131.9694 C   0  0  0  0  0  0  0  0  0  0  0  0
    9.7706   44.1271  130.7019 C   0  0  0  0  0  0  0  0  0  0  0  0
    8.2824   44.0057  130.6257 C   0  0  0  0  0  0  0  0  0  0  0  0
   10.4089   43.2143  129.6423 C   0  0  0  0  0  0  0  0  0  0  0  0
    9.7738   43.3501  128.3003 C   0  0  0  0  0  0  0  0  0  0  0  0
   10.2993   44.6791  127.8109 C   0  0  0  0  0  0  0  0  0  0  0  0
   11.2110   44.5659  127.0323 O   0  0  0  0  0  0  0  0  0  0  0  0
   11.5834   47.5198  127.5262 C   0  0  0  0  0  0  0  0  0  0  0  0
   10.2353   46.9896  127.2070 C   0  0  0  0  0  0  0  0  0  0  0  0
 24 25  1  0  0  0
 25  1  1  0  0  0
  1  2  1  0  0  0
  2  3  1  0  0  0
  3  4  1  0  0  0
  4  5  1  0  0  0
  5  6  1  0  0  0
  6  7  1  0  0  0
  7  8  2  0  0  0
  8  9  1  0  0  0
  9 10  2  0  0  0
  9 11  1  0  0  0
 11 12  1  0  0  0
 12 13  1  0  0  0
 13 14  1  0  0  0
 13 15  1  0  0  0
 15 16  1  0  0  0
 16 17  1  0  0  0
 17 18  1  0  0  0
 18 19  1  0  0  0
 18 20  1  0  0  0
 20 21  1  0  0  0
 21 22  1  0  0  0
 22 23  2  0  0  0
 22  1  1  0  0  0
 18  3  1  0  0  0
 15  4  1  0  0  0
 13  7  1  0  0  0
M  END
> <minimizedAffinity>
12.92633

> <CNNscore>
0.5198334455

> <CNNaffinity>
7.6581850052

> <CNN_VS>
3.9809806347

> <CNNaffinity_variance>
2.0177981853

$$$$
[H]C1=C2C([H])([H])C([H])([H])[C@]3([H])[C@]([H])(C([H])([H])C([H])([H])[C@]4(C([H])([H])[H])C([H])([H])C([H])([H])C(=O)[C@]([H])(C([H])([H])C([H])([H])[H])C([H])([H])[C@@]34[H])[C@@]2(C([H])([H])[H])C([H])([H])C([H])([H])C1=O


 25 28  0  0  0  0  0  0  0  0999 V2000
   10.3533   46.2140  135.2435 C   0  0  0  0  0  0  0  0  0  0  0  0
    9.8872   46.0666  133.8582 C   0  0  0  0  0  0  0  0  0  0  0  0
   10.0249   44.8323  133.1085 C   0  0  0  0  0  0  0  0  0  0  0  0
   10.1406   45.2195  131.6255 C   0  0  0  0  0  0  0  0  0  0  0  0
    9.0424   46.1796  131.2277 C   0  0  0  0  0  0  0  0  0  0  0  0
    9.5205   46.8785  129.9603 C   0  0  0  0  0  0  0  0  0  0  0  0
    9.9392   45.8573  128.9660 C   0  0  0  0  0  0  0  0  0  0  0  0
    9.8040   46.1924  127.6960 C   0  0  0  0  0  0  0  0  0  0  0  0
   10.1834   45.2663  126.6433 C   0  0  0  0  0  0  0  0  0  0  0  0
   10.4522   45.6930  125.5080 O   0  0  0  0  0  0  0  0  0  0  0  0
   10.2538   43.8095  126.9104 C   0  0  0  0  0  0  0  0  0  0  0  0
    9.8804   43.5113  128.3532 C   0  0  0  0  0  0  0  0  0  0  0  0
   10.4801   44.5470  129.3036 C   0  0  0  0  0  0  0  0  0  0  0  0
   11.9878   44.6148  129.1075 C   0  0  0  0  0  0  0  0  0  0  0  0
   10.1288   44.0859  130.6992 C   0  0  0  0  0  0  0  0  0  0  0  0
   11.0846   42.9747  131.0417 C   0  0  0  0  0  0  0  0  0  0  0  0
   10.9112   42.6560  132.4763 C   0  0  0  0  0  0  0  0  0  0  0  0
   11.0816   43.8634  133.4157 C   0  0  0  0  0  0  0  0  0  0  0  0
   12.4862   44.3670  133.3227 C   0  0  0  0  0  0  0  0  0  0  0  0
   10.8869   43.1494  134.7631 C   0  0  0  0  0  0  0  0  0  0  0  0
   11.4167   43.9314  135.9166 C   0  0  0  0  0  0  0  0  0  0  0  0
   10.3898   45.0268  136.0821 C   0  0  0  0  0  0  0  0  0  0  0  0
    9.6124   44.8109  136.9762 O   0  0  0  0  0  0  0  0  0  0  0  0
    8.3557   47.7350  135.1899 C   0  0  0  0  0  0  0  0  0  0  0  0
    9.4921   47.2394  136.0042 C   0  0  0  0  0  0  0  0  0  0  0  0
 24 25  1  0  0  0
 25  1  1  0  0  0
  1  2  1  0  0  0
  2  3  1  0  0  0
  3  4  1  0  0  0
  4  5  1  0  0  0
  5  6  1  0  0  0
  6  7  1  0  0  0
  7  8  2  0  0  0
  8  9  1  0  0  0
  9 10  2  0  0  0
  9 11  1  0  0  0
 11 12  1  0  0  0
 12 13  1  0  0  0
 13 14  1  0  0  0
 13 15  1  0  0  0
 15 16  1  0  0  0
 16 17  1  0  0  0
 17 18  1  0  0  0
 18 19  1  0  0  0
 18 20  1  0  0  0
 20 21  1  0  0  0
 21 22  1  0  0  0
 22 23  2  0  0  0
 22  1  1  0  0  0
 18  3  1  0  0  0
 15  4  1  0  0  0
 13  7  1  0  0  0
M  END
> <minimizedAffinity>
7.53400

> <CNNscore>
0.5151596069

> <CNNaffinity>
7.4706573486

> <CNN_VS>
3.8485808372

> <CNNaffinity_variance>
1.2322880030

$$$$
[H]C1=C2C([H])([H])C([H])([H])[C@]3([H])[C@]([H])(C([H])([H])C([H])([H])[C@]4(C([H])([H])[H])C([H])([H])C([H])([H])C(=O)[C@]([H])(C([H])([H])C([H])([H])[H])C([H])([H])[C@@]34[H])[C@@]2(C([H])([H])[H])C([H])([H])C([H])([H])C1=O


 25 28  0  0  0  0  0  0  0  0999 V2000
   12.1145   43.5343  128.7342 C   0  0  0  0  0  0  0  0  0  0  0  0
   10.8306   43.4129  129.4377 C   0  0  0  0  0  0  0  0  0  0  0  0
   10.5960   43.9819  130.7513 C   0  0  0  0  0  0  0  0  0  0  0  0
    9.5434   43.0989  131.4404 C   0  0  0  0  0  0  0  0  0  0  0  0
    8.3528   42.8684  130.5375 C   0  0  0  0  0  0  0  0  0  0  0  0
    7.6463   41.6255  131.0664 C   0  0  0  0  0  0  0  0  0  0  0  0
    7.3894   41.7895  132.5203 C   0  0  0  0  0  0  0  0  0  0  0  0
    6.3292   41.1637  132.9977 C   0  0  0  0  0  0  0  0  0  0  0  0
    5.9876   41.2586  134.4062 C   0  0  0  0  0  0  0  0  0  0  0  0
    5.2811   40.3838  134.9342 O   0  0  0  0  0  0  0  0  0  0  0  0
    6.4754   42.3944  135.2252 C   0  0  0  0  0  0  0  0  0  0  0  0
    7.3101   43.3433  134.3810 C   0  0  0  0  0  0  0  0  0  0  0  0
    8.2203   42.5747  133.4238 C   0  0  0  0  0  0  0  0  0  0  0  0
    9.0856   41.5982  134.2075 C   0  0  0  0  0  0  0  0  0  0  0  0
    9.0639   43.6149  132.7238 C   0  0  0  0  0  0  0  0  0  0  0  0
   10.1445   44.0186  133.6908 C   0  0  0  0  0  0  0  0  0  0  0  0
   11.1117   44.8663  132.9589 C   0  0  0  0  0  0  0  0  0  0  0  0
   11.6950   44.2102  131.6946 C   0  0  0  0  0  0  0  0  0  0  0  0
   12.4904   43.0060  132.0853 C   0  0  0  0  0  0  0  0  0  0  0  0
   12.6528   45.3319  131.2613 C   0  0  0  0  0  0  0  0  0  0  0  0
   13.7050   44.8636  130.3146 C   0  0  0  0  0  0  0  0  0  0  0  0
   12.9438   44.6937  129.0209 C   0  0  0  0  0  0  0  0  0  0  0  0
   13.0979   45.6148  128.2606 O   0  0  0  0  0  0  0  0  0  0  0  0
   13.0091   42.8567  126.4876 C   0  0  0  0  0  0  0  0  0  0  0  0
   11.9044   43.5349  127.2086 C   0  0  0  0  0  0  0  0  0  0  0  0
 24 25  1  0  0  0
 25  1  1  0  0  0
  1  2  1  0  0  0
  2  3  1  0  0  0
  3  4  1  0  0  0
  4  5  1  0  0  0
  5  6  1  0  0  0
  6  7  1  0  0  0
  7  8  2  0  0  0
  8  9  1  0  0  0
  9 10  2  0  0  0
  9 11  1  0  0  0
 11 12  1  0  0  0
 12 13  1  0  0  0
 13 14  1  0  0  0
 13 15  1  0  0  0
 15 16  1  0  0  0
 16 17  1  0  0  0
 17 18  1  0  0  0
 18 19  1  0  0  0
 18 20  1  0  0  0
 20 21  1  0  0  0
 21 22  1  0  0  0
 22 23  2  0  0  0
 22  1  1  0  0  0
 18  3  1  0  0  0
 15  4  1  0  0  0
 13  7  1  0  0  0
M  END
> <minimizedAffinity>
31.27609

> <CNNscore>
0.5148606896

> <CNNaffinity>
7.0741491318

> <CNN_VS>
3.6422011852

> <CNNaffinity_variance>
1.7170467377

$$$$
[H]C1=C2C([H])([H])C([H])([H])[C@]3([H])[C@]([H])(C([H])([H])C([H])([H])[C@]4(C([H])([H])[H])C([H])([H])C([H])([H])C(=O)[C@]([H])(C([H])([H])C([H])([H])[H])C([H])([H])[C@@]34[H])[C@@]2(C([H])([H])[H])C([H])([H])C([H])([H])C1=O


 25 28  0  0  0  0  0  0  0  0999 V2000
    9.3972   47.3825  128.7616 C   0  0  0  0  0  0  0  0  0  0  0  0
    9.4112   46.4470  129.8941 C   0  0  0  0  0  0  0  0  0  0  0  0
    8.9512   46.8105  131.2210 C   0  0  0  0  0  0  0  0  0  0  0  0
    9.7461   45.9551  132.2206 C   0  0  0  0  0  0  0  0  0  0  0  0
    9.7181   44.4952  131.8286 C   0  0  0  0  0  0  0  0  0  0  0  0
   10.8989   43.8379  132.5336 C   0  0  0  0  0  0  0  0  0  0  0  0
   10.8490   44.1656  133.9816 C   0  0  0  0  0  0  0  0  0  0  0  0
   11.3680   43.2680  134.7993 C   0  0  0  0  0  0  0  0  0  0  0  0
   11.3700   43.4900  136.2346 C   0  0  0  0  0  0  0  0  0  0  0  0
   12.1882   42.8934  136.9542 O   0  0  0  0  0  0  0  0  0  0  0  0
   10.4009   44.4260  136.8538 C   0  0  0  0  0  0  0  0  0  0  0  0
    9.4954   45.0358  135.7963 C   0  0  0  0  0  0  0  0  0  0  0  0
   10.2812   45.3886  134.5340 C   0  0  0  0  0  0  0  0  0  0  0  0
   11.4417   46.3072  134.8888 C   0  0  0  0  0  0  0  0  0  0  0  0
    9.3015   46.0747  133.6103 C   0  0  0  0  0  0  0  0  0  0  0  0
    9.1502   47.4863  134.1105 C   0  0  0  0  0  0  0  0  0  0  0  0
    8.3740   48.2419  133.1024 C   0  0  0  0  0  0  0  0  0  0  0  0
    8.9729   48.2012  131.6850 C   0  0  0  0  0  0  0  0  0  0  0  0
   10.3083   48.8733  131.6937 C   0  0  0  0  0  0  0  0  0  0  0  0
    7.9557   49.1035  130.9678 C   0  0  0  0  0  0  0  0  0  0  0  0
    8.4661   49.6398  129.6738 C   0  0  0  0  0  0  0  0  0  0  0  0
    8.3979   48.4387  128.7601 C   0  0  0  0  0  0  0  0  0  0  0  0
    7.4347   48.4521  128.0375 O   0  0  0  0  0  0  0  0  0  0  0  0
   10.0505   45.4063  127.3565 C   0  0  0  0  0  0  0  0  0  0  0  0
    9.2133   46.6284  127.4315 C   0  0  0  0  0  0  0  0  0  0  0  0
 24 25  1  0  0  0
 25  1  1  0  0  0
  1  2  1  0  0  0
  2  3  1  0  0  0
  3  4  1  0  0  0
  4  5  1  0  0  0
  5  6  1  0  0  0
  6  7  1  0  0  0
  7  8  2  0  0  0
  8  9  1  0  0  0
  9 10  2  0  0  0
  9 11  1  0  0  0
 11 12  1  0  0  0
 12 13  1  0  0  0
 13 14  1  0  0  0
 13 15  1  0  0  0
 15 16  1  0  0  0
 16 17  1  0  0  0
 17 18  1  0  0  0
 18 19  1  0  0  0
 18 20  1  0  0  0
 20 21  1  0  0  0
 21 22  1  0  0  0
 22 23  2  0  0  0
 22  1  1  0  0  0
 18  3  1  0  0  0
 15  4  1  0  0  0
 13  7  1  0  0  0
M  END
> <minimizedAffinity>
5.68103

> <CNNscore>
0.4981046915

> <CNNaffinity>
7.5789961815

> <CNN_VS>
3.7751336098

> <CNNaffinity_variance>
1.4344047308

$$$$
[H]OC(=O)[C@@]([H])(N([H])C(=O)[C@@]([H])(N([H])C(=O)[C@@]([H])(N([H])C(=O)[C@@]([H])(N([H])C(=O)[C@@]([H])(N([H])C(=O)[C@@]([H])(N([H])C(=O)[C@@]([H])(N([H])C(=O)C([H])([H])[H])C([H])(C([H])([H])[H])C([H])([H])[H])C([H])([H])C([H])([H])C(=O)N([H])[H])C([H])([H])C([H])(C([H])([H])[H])C([H])([H])[H])C([H])([H])O[H])C([H])([H])O[H])C([H])(C([H])([H])[H])C([H])([H])[H])C([H])([H])O[H]


 66 65  0  0  0  0  0  0  0  0999 V2000
    7.6351   49.8517  128.9865 C   0  0  0  0  0  0  0  0  0  0  0  0
    7.5001   49.3450  127.8530 O   0  0  0  0  0  0  0  0  0  0  0  0
    8.3493   49.1738  129.9789 N   0  0  0  0  0  0  0  0  0  0  0  0
    8.4611   49.5703  130.9244 H   0  0  0  0  0  0  0  0  0  0  0  0
    7.0215   51.1910  129.2426 C   0  0  0  0  0  0  0  0  0  0  0  0
    7.1829   52.0349  128.0984 N   0  0  0  0  0  0  0  0  0  0  0  0
    7.0848   53.4661  128.1638 C   0  0  0  0  0  0  0  0  0  0  0  0
    6.8601   53.9505  129.3004 O   0  0  0  0  0  0  0  0  0  0  0  0
    7.3799   51.6560  127.1704 H   0  0  0  0  0  0  0  0  0  0  0  0
    7.2312   54.3465  127.0177 C   0  0  0  0  0  0  0  0  0  0  0  0
    7.1351   53.5850  125.7855 N   0  0  0  0  0  0  0  0  0  0  0  0
    7.1250   54.1041  124.4870 C   0  0  0  0  0  0  0  0  0  0  0  0
    7.2059   55.3503  124.3429 O   0  0  0  0  0  0  0  0  0  0  0  0
    7.0553   52.5375  125.8934 H   0  0  0  0  0  0  0  0  0  0  0  0
    7.0234   53.2694  123.2829 C   0  0  0  0  0  0  0  0  0  0  0  0
    6.0590   53.8280  122.3309 N   0  0  0  0  0  0  0  0  0  0  0  0
    4.6739   53.8783  122.6131 C   0  0  0  0  0  0  0  0  0  0  0  0
    3.6880   54.4386  121.6587 C   0  0  0  0  0  0  0  0  0  0  0  0
    4.2478   53.4361  123.7077 O   0  0  0  0  0  0  0  0  0  0  0  0
    6.3787   54.2035  121.4138 H   0  0  0  0  0  0  0  0  0  0  0  0
    8.3022   53.0858  122.5148 C   0  0  0  0  0  0  0  0  0  0  0  0
    9.1047   54.3576  122.3882 C   0  0  0  0  0  0  0  0  0  0  0  0
    9.1131   51.8812  122.8858 C   0  0  0  0  0  0  0  0  0  0  0  0
    6.3863   55.5506  126.9419 C   0  0  0  0  0  0  0  0  0  0  0  0
    5.0445   55.4217  126.3262 C   0  0  0  0  0  0  0  0  0  0  0  0
    4.7372   56.7464  125.6711 C   0  0  0  0  0  0  0  0  0  0  0  0
    5.7518   57.7285  125.5693 N   0  0  0  0  0  0  0  0  0  0  0  0
    3.6006   57.0163  125.2057 O   0  0  0  0  0  0  0  0  0  0  0  0
    5.4896   58.7008  125.3615 H   0  0  0  0  0  0  0  0  0  0  0  0
    6.7588   57.4917  125.7020 H   0  0  0  0  0  0  0  0  0  0  0  0
    5.6987   51.0420  129.8417 C   0  0  0  0  0  0  0  0  0  0  0  0
    5.6545   48.5592  129.2678 C   0  0  0  0  0  0  0  0  0  0  0  0
    4.9572   49.7742  129.7459 C   0  0  0  0  0  0  0  0  0  0  0  0
    3.8112   50.0251  128.7378 C   0  0  0  0  0  0  0  0  0  0  0  0
    8.9763   47.8849  129.7407 C   0  0  0  0  0  0  0  0  0  0  0  0
    9.6955   47.3336  130.9028 C   0  0  0  0  0  0  0  0  0  0  0  0
   10.6150   46.4892  130.8353 O   0  0  0  0  0  0  0  0  0  0  0  0
    9.3228   47.7944  132.1869 N   0  0  0  0  0  0  0  0  0  0  0  0
    8.5574   48.4881  132.2726 H   0  0  0  0  0  0  0  0  0  0  0  0
    9.9444   47.3609  133.4317 C   0  0  0  0  0  0  0  0  0  0  0  0
   10.1369   45.8997  133.4334 C   0  0  0  0  0  0  0  0  0  0  0  0
   11.2904   45.4554  133.8078 O   0  0  0  0  0  0  0  0  0  0  0  0
    9.2141   44.9185  133.0725 N   0  0  0  0  0  0  0  0  0  0  0  0
    8.2706   45.1396  132.7388 H   0  0  0  0  0  0  0  0  0  0  0  0
    9.5047   43.4639  133.1236 C   0  0  0  0  0  0  0  0  0  0  0  0
   10.4250   43.1358  131.9952 C   0  0  0  0  0  0  0  0  0  0  0  0
   11.3859   42.3098  132.1913 O   0  0  0  0  0  0  0  0  0  0  0  0
   10.3179   43.6739  130.7001 N   0  0  0  0  0  0  0  0  0  0  0  0
    9.5897   44.3469  130.3928 H   0  0  0  0  0  0  0  0  0  0  0  0
   11.2616   43.3020  129.6331 C   0  0  0  0  0  0  0  0  0  0  0  0
   12.3533   44.3488  129.6625 C   0  0  0  0  0  0  0  0  0  0  0  0
   13.1236   44.4887  130.8063 O   0  0  0  0  0  0  0  0  0  0  0  0
   12.5870   45.0956  128.6897 O   0  0  0  0  0  0  0  0  0  0  0  0
   13.0019   43.9007  131.6259 H   0  0  0  0  0  0  0  0  0  0  0  0
   10.5301   43.3840  128.3099 C   0  0  0  0  0  0  0  0  0  0  0  0
    9.3334   44.1009  128.4551 O   0  0  0  0  0  0  0  0  0  0  0  0
    8.5800   43.5109  128.7547 H   0  0  0  0  0  0  0  0  0  0  0  0
    8.2220   42.7064  133.1037 C   0  0  0  0  0  0  0  0  0  0  0  0
    7.7570   42.3964  131.6926 C   0  0  0  0  0  0  0  0  0  0  0  0
    8.2145   41.5618  134.0366 C   0  0  0  0  0  0  0  0  0  0  0  0
    9.2348   47.9296  134.6193 C   0  0  0  0  0  0  0  0  0  0  0  0
    8.1120   47.2386  134.9828 O   0  0  0  0  0  0  0  0  0  0  0  0
    8.3454   46.5159  135.6311 H   0  0  0  0  0  0  0  0  0  0  0  0
    9.8378   47.9152  128.5051 C   0  0  0  0  0  0  0  0  0  0  0  0
   10.2737   46.6395  128.1742 O   0  0  0  0  0  0  0  0  0  0  0  0
    9.5171   46.2241  127.6550 H   0  0  0  0  0  0  0  0  0  0  0  0
 32 33  1  0  0  0
 33 34  1  0  0  0
 33 31  1  0  0  0
 31  5  1  0  0  0
  5  6  1  0  0  0
  6  7  1  0  0  0
  7  8  2  0  0  0
  7 10  1  0  0  0
 10 24  1  0  0  0
 24 25  1  0  0  0
 25 26  1  0  0  0
 26 27  1  0  0  0
 26 28  2  0  0  0
 10 11  1  0  0  0
 11 12  1  0  0  0
 12 13  2  0  0  0
 12 15  1  0  0  0
 15 16  1  0  0  0
 16 17  1  0  0  0
 17 18  1  0  0  0
 17 19  2  0  0  0
 15 21  1  0  0  0
 21 22  1  0  0  0
 21 23  1  0  0  0
  5  1  1  0  0  0
  1  2  2  0  0  0
  1  3  1  0  0  0
  3 35  1  0  0  0
 35 64  1  0  0  0
 64 65  1  0  0  0
 35 36  1  0  0  0
 36 37  2  0  0  0
 36 38  1  0  0  0
 38 40  1  0  0  0
 40 61  1  0  0  0
 61 62  1  0  0  0
 40 41  1  0  0  0
 41 42  2  0  0  0
 41 43  1  0  0  0
 43 45  1  0  0  0
 45 58  1  0  0  0
 58 59  1  0  0  0
 58 60  1  0  0  0
 45 46  1  0  0  0
 46 47  2  0  0  0
 46 48  1  0  0  0
 48 50  1  0  0  0
 50 55  1  0  0  0
 55 56  1  0  0  0
 50 51  1  0  0  0
 51 52  1  0  0  0
 51 53  2  0  0  0
  6  9  1  0  0  0
 27 29  1  0  0  0
 27 30  1  0  0  0
 11 14  1  0  0  0
 16 20  1  0  0  0
  3  4  1  0  0  0
 65 66  1  0  0  0
 38 39  1  0  0  0
 62 63  1  0  0  0
 43 44  1  0  0  0
 48 49  1  0  0  0
 56 57  1  0  0  0
 52 54  1  0  0  0
M  END
> <minimizedAffinity>
4.81245

> <CNNscore>
0.4463454187

> <CNNaffinity>
7.2654409409

> <CNN_VS>
3.2428963184

> <CNNaffinity_variance>
1.0978329182

$$$$
[H]OC(=O)[C@@]([H])(N([H])C(=O)[C@@]([H])(N([H])C(=O)[C@@]([H])(N([H])C(=O)[C@@]([H])(N([H])C(=O)[C@@]([H])(N([H])C(=O)[C@@]([H])(N([H])C(=O)[C@@]([H])(N([H])C(=O)C([H])([H])[H])C([H])(C([H])([H])[H])C([H])([H])[H])C([H])([H])C([H])([H])C(=O)N([H])[H])C([H])([H])C([H])(C([H])([H])[H])C([H])([H])[H])C([H])([H])O[H])C([H])([H])O[H])C([H])(C([H])([H])[H])C([H])([H])[H])C([H])([H])O[H]


 66 65  0  0  0  0  0  0  0  0999 V2000
    8.0552   48.4945  130.7465 C   0  0  0  0  0  0  0  0  0  0  0  0
    8.3342   49.6963  130.9401 O   0  0  0  0  0  0  0  0  0  0  0  0
    7.5670   48.0774  129.5047 N   0  0  0  0  0  0  0  0  0  0  0  0
    7.3195   47.0916  129.3296 H   0  0  0  0  0  0  0  0  0  0  0  0
    8.2628   47.5283  131.8687 C   0  0  0  0  0  0  0  0  0  0  0  0
    8.8575   46.3227  131.3785 N   0  0  0  0  0  0  0  0  0  0  0  0
    8.1585   45.3942  130.5351 C   0  0  0  0  0  0  0  0  0  0  0  0
    6.9806   45.7063  130.2316 O   0  0  0  0  0  0  0  0  0  0  0  0
    9.8191   46.0628  131.6055 H   0  0  0  0  0  0  0  0  0  0  0  0
    8.7319   44.1575  130.0333 C   0  0  0  0  0  0  0  0  0  0  0  0
   10.1761   44.1796  130.1788 N   0  0  0  0  0  0  0  0  0  0  0  0
   11.0322   45.2217  129.8091 C   0  0  0  0  0  0  0  0  0  0  0  0
   10.5285   46.2536  129.2977 O   0  0  0  0  0  0  0  0  0  0  0  0
   10.6127   43.3137  130.5970 H   0  0  0  0  0  0  0  0  0  0  0  0
   12.4894   45.1727  129.9859 C   0  0  0  0  0  0  0  0  0  0  0  0
   12.8540   44.3766  131.1613 N   0  0  0  0  0  0  0  0  0  0  0  0
   12.4313   44.7304  132.4639 C   0  0  0  0  0  0  0  0  0  0  0  0
   12.7944   43.9354  133.6609 C   0  0  0  0  0  0  0  0  0  0  0  0
   11.7223   45.7527  132.6293 O   0  0  0  0  0  0  0  0  0  0  0  0
   13.4409   43.5225  131.0597 H   0  0  0  0  0  0  0  0  0  0  0  0
   13.2601   44.5874  128.8360 C   0  0  0  0  0  0  0  0  0  0  0  0
   14.5388   43.9098  129.2640 C   0  0  0  0  0  0  0  0  0  0  0  0
   12.4514   43.8055  127.8456 C   0  0  0  0  0  0  0  0  0  0  0  0
    8.1881   42.8793  130.5232 C   0  0  0  0  0  0  0  0  0  0  0  0
    9.0814   42.0006  131.3146 C   0  0  0  0  0  0  0  0  0  0  0  0
    9.2031   42.6237  132.6841 C   0  0  0  0  0  0  0  0  0  0  0  0
   10.0787   42.0510  133.6379 N   0  0  0  0  0  0  0  0  0  0  0  0
    8.5491   43.6451  133.0162 O   0  0  0  0  0  0  0  0  0  0  0  0
    9.9791   42.3086  134.6283 H   0  0  0  0  0  0  0  0  0  0  0  0
   10.8212   41.3725  133.3621 H   0  0  0  0  0  0  0  0  0  0  0  0
    8.8543   48.2015  133.0210 C   0  0  0  0  0  0  0  0  0  0  0  0
    9.4030   46.9455  135.1698 C   0  0  0  0  0  0  0  0  0  0  0  0
    9.8392   47.5217  133.8780 C   0  0  0  0  0  0  0  0  0  0  0  0
   10.9045   48.5861  134.2310 C   0  0  0  0  0  0  0  0  0  0  0  0
    7.3851   48.9961  128.3938 C   0  0  0  0  0  0  0  0  0  0  0  0
    6.7939   50.2934  128.7670 C   0  0  0  0  0  0  0  0  0  0  0  0
    5.9043   50.4472  129.6319 O   0  0  0  0  0  0  0  0  0  0  0  0
    7.2683   51.4484  128.1031 N   0  0  0  0  0  0  0  0  0  0  0  0
    7.9995   51.3487  127.3752 H   0  0  0  0  0  0  0  0  0  0  0  0
    6.7992   52.8028  128.3667 C   0  0  0  0  0  0  0  0  0  0  0  0
    7.3865   53.7514  127.4036 C   0  0  0  0  0  0  0  0  0  0  0  0
    7.9610   54.8034  127.8848 O   0  0  0  0  0  0  0  0  0  0  0  0
    7.3979   53.6555  126.0125 N   0  0  0  0  0  0  0  0  0  0  0  0
    6.9588   52.8802  125.5058 H   0  0  0  0  0  0  0  0  0  0  0  0
    8.0326   54.6645  125.1282 C   0  0  0  0  0  0  0  0  0  0  0  0
    7.0575   55.7749  124.9184 C   0  0  0  0  0  0  0  0  0  0  0  0
    7.2620   56.6172  123.9735 O   0  0  0  0  0  0  0  0  0  0  0  0
    5.9017   55.9750  125.6945 N   0  0  0  0  0  0  0  0  0  0  0  0
    5.6038   55.3729  126.4859 H   0  0  0  0  0  0  0  0  0  0  0  0
    4.9812   57.0927  125.4282 C   0  0  0  0  0  0  0  0  0  0  0  0
    4.3695   57.4526  126.7641 C   0  0  0  0  0  0  0  0  0  0  0  0
    5.1423   57.3493  127.9101 O   0  0  0  0  0  0  0  0  0  0  0  0
    3.1880   57.8408  126.8732 O   0  0  0  0  0  0  0  0  0  0  0  0
    6.1163   57.0608  127.8918 H   0  0  0  0  0  0  0  0  0  0  0  0
    3.8927   56.5938  124.5015 C   0  0  0  0  0  0  0  0  0  0  0  0
    4.3440   55.4881  123.7660 O   0  0  0  0  0  0  0  0  0  0  0  0
    4.8274   55.7672  122.9331 H   0  0  0  0  0  0  0  0  0  0  0  0
    8.4815   54.0023  123.8714 C   0  0  0  0  0  0  0  0  0  0  0  0
    7.3344   53.3500  123.1216 C   0  0  0  0  0  0  0  0  0  0  0  0
    9.3650   54.8573  123.0537 C   0  0  0  0  0  0  0  0  0  0  0  0
    6.9511   53.1580  129.8117 C   0  0  0  0  0  0  0  0  0  0  0  0
    7.4005   52.1311  130.5952 O   0  0  0  0  0  0  0  0  0  0  0  0
    8.3986   52.1297  130.6243 H   0  0  0  0  0  0  0  0  0  0  0  0
    6.6416   48.3418  127.2585 C   0  0  0  0  0  0  0  0  0  0  0  0
    5.4795   47.7337  127.7131 O   0  0  0  0  0  0  0  0  0  0  0  0
    4.7927   48.4691  127.7591 H   0  0  0  0  0  0  0  0  0  0  0  0
 32 33  1  0  0  0
 33 34  1  0  0  0
 33 31  1  0  0  0
 31  5  1  0  0  0
  5  6  1  0  0  0
  6  7  1  0  0  0
  7  8  2  0  0  0
  7 10  1  0  0  0
 10 24  1  0  0  0
 24 25  1  0  0  0
 25 26  1  0  0  0
 26 27  1  0  0  0
 26 28  2  0  0  0
 10 11  1  0  0  0
 11 12  1  0  0  0
 12 13  2  0  0  0
 12 15  1  0  0  0
 15 16  1  0  0  0
 16 17  1  0  0  0
 17 18  1  0  0  0
 17 19  2  0  0  0
 15 21  1  0  0  0
 21 22  1  0  0  0
 21 23  1  0  0  0
  5  1  1  0  0  0
  1  2  2  0  0  0
  1  3  1  0  0  0
  3 35  1  0  0  0
 35 64  1  0  0  0
 64 65  1  0  0  0
 35 36  1  0  0  0
 36 37  2  0  0  0
 36 38  1  0  0  0
 38 40  1  0  0  0
 40 61  1  0  0  0
 61 62  1  0  0  0
 40 41  1  0  0  0
 41 42  2  0  0  0
 41 43  1  0  0  0
 43 45  1  0  0  0
 45 58  1  0  0  0
 58 59  1  0  0  0
 58 60  1  0  0  0
 45 46  1  0  0  0
 46 47  2  0  0  0
 46 48  1  0  0  0
 48 50  1  0  0  0
 50 55  1  0  0  0
 55 56  1  0  0  0
 50 51  1  0  0  0
 51 52  1  0  0  0
 51 53  2  0  0  0
  6  9  1  0  0  0
 27 29  1  0  0  0
 27 30  1  0  0  0
 11 14  1  0  0  0
 16 20  1  0  0  0
  3  4  1  0  0  0
 65 66  1  0  0  0
 38 39  1  0  0  0
 62 63  1  0  0  0
 43 44  1  0  0  0
 48 49  1  0  0  0
 56 57  1  0  0  0
 52 54  1  0  0  0
M  END
> <minimizedAffinity>
1.83277

> <CNNscore>
0.3516065478

> <CNNaffinity>
7.4264626503

> <CNN_VS>
2.6111929417

> <CNNaffinity_variance>
0.4320297837

$$$$
[H]OC(=O)[C@@]([H])(N([H])C(=O)[C@@]([H])(N([H])C(=O)[C@@]([H])(N([H])C(=O)[C@@]([H])(N([H])C(=O)[C@@]([H])(N([H])C(=O)[C@@]([H])(N([H])C(=O)[C@@]([H])(N([H])C(=O)C([H])([H])[H])C([H])(C([H])([H])[H])C([H])([H])[H])C([H])([H])C([H])([H])C(=O)N([H])[H])C([H])([H])C([H])(C([H])([H])[H])C([H])([H])[H])C([H])([H])O[H])C([H])([H])O[H])C([H])(C([H])([H])[H])C([H])([H])[H])C([H])([H])O[H]


 66 65  0  0  0  0  0  0  0  0999 V2000
    8.0182   48.7489  128.6722 C   0  0  0  0  0  0  0  0  0  0  0  0
    7.0195   48.1320  128.2461 O   0  0  0  0  0  0  0  0  0  0  0  0
    7.9437   50.1232  128.9173 N   0  0  0  0  0  0  0  0  0  0  0  0
    8.7611   50.6522  129.2576 H   0  0  0  0  0  0  0  0  0  0  0  0
    9.2775   47.9796  128.9141 C   0  0  0  0  0  0  0  0  0  0  0  0
    9.5395   47.8904  130.3180 N   0  0  0  0  0  0  0  0  0  0  0  0
    8.6081   47.3218  131.2514 C   0  0  0  0  0  0  0  0  0  0  0  0
    7.5370   46.8851  130.7626 O   0  0  0  0  0  0  0  0  0  0  0  0
   10.4120   48.2285  130.7279 H   0  0  0  0  0  0  0  0  0  0  0  0
    8.8414   47.2296  132.6822 C   0  0  0  0  0  0  0  0  0  0  0  0
    9.3809   45.9247  133.0188 N   0  0  0  0  0  0  0  0  0  0  0  0
   10.5262   45.3341  132.4755 C   0  0  0  0  0  0  0  0  0  0  0  0
   11.1719   45.9741  131.6073 O   0  0  0  0  0  0  0  0  0  0  0  0
    8.8411   45.3720  133.7390 H   0  0  0  0  0  0  0  0  0  0  0  0
   11.0131   44.0044  132.8651 C   0  0  0  0  0  0  0  0  0  0  0  0
    9.9530   43.2177  133.5021 N   0  0  0  0  0  0  0  0  0  0  0  0
    8.7321   42.9385  132.8448 C   0  0  0  0  0  0  0  0  0  0  0  0
    7.6514   42.1461  133.4781 C   0  0  0  0  0  0  0  0  0  0  0  0
    8.5410   43.3708  131.6822 O   0  0  0  0  0  0  0  0  0  0  0  0
   10.0789   42.8438  134.4658 H   0  0  0  0  0  0  0  0  0  0  0  0
   11.5393   43.1549  131.7425 C   0  0  0  0  0  0  0  0  0  0  0  0
   12.8038   43.7031  131.1276 C   0  0  0  0  0  0  0  0  0  0  0  0
   11.5736   41.6802  132.0075 C   0  0  0  0  0  0  0  0  0  0  0  0
    9.6239   48.2912  133.3381 C   0  0  0  0  0  0  0  0  0  0  0  0
   10.3304   47.9579  134.5975 C   0  0  0  0  0  0  0  0  0  0  0  0
    9.4119   47.0565  135.3864 C   0  0  0  0  0  0  0  0  0  0  0  0
    9.9240   45.8709  135.9665 N   0  0  0  0  0  0  0  0  0  0  0  0
    8.1934   47.3201  135.5513 O   0  0  0  0  0  0  0  0  0  0  0  0
    9.2694   45.1423  136.2791 H   0  0  0  0  0  0  0  0  0  0  0  0
   10.9488   45.7164  136.0830 H   0  0  0  0  0  0  0  0  0  0  0  0
    9.2999   46.7662  128.1029 C   0  0  0  0  0  0  0  0  0  0  0  0
   10.9801   44.8656  127.8573 C   0  0  0  0  0  0  0  0  0  0  0  0
    9.8884   45.5181  128.6148 C   0  0  0  0  0  0  0  0  0  0  0  0
    8.7346   44.4889  128.6594 C   0  0  0  0  0  0  0  0  0  0  0  0
    6.7215   50.8826  128.7151 C   0  0  0  0  0  0  0  0  0  0  0  0
    6.9280   52.3292  128.5239 C   0  0  0  0  0  0  0  0  0  0  0  0
    7.0283   53.1620  129.4509 O   0  0  0  0  0  0  0  0  0  0  0  0
    7.0237   52.8109  127.1977 N   0  0  0  0  0  0  0  0  0  0  0  0
    6.9352   52.1433  126.4097 H   0  0  0  0  0  0  0  0  0  0  0  0
    7.2418   54.2069  126.8406 C   0  0  0  0  0  0  0  0  0  0  0  0
    6.1887   54.6780  125.9235 C   0  0  0  0  0  0  0  0  0  0  0  0
    5.5991   55.7882  126.2202 O   0  0  0  0  0  0  0  0  0  0  0  0
    5.7386   54.0632  124.7556 N   0  0  0  0  0  0  0  0  0  0  0  0
    6.1101   53.1687  124.4205 H   0  0  0  0  0  0  0  0  0  0  0  0
    4.6752   54.6311  123.8899 C   0  0  0  0  0  0  0  0  0  0  0  0
    3.3669   54.0643  124.3315 C   0  0  0  0  0  0  0  0  0  0  0  0
    2.4615   53.8240  123.4559 O   0  0  0  0  0  0  0  0  0  0  0  0
    3.0407   53.7642  125.6663 N   0  0  0  0  0  0  0  0  0  0  0  0
    3.6725   53.8989  126.4789 H   0  0  0  0  0  0  0  0  0  0  0  0
    1.7289   53.2032  126.0293 C   0  0  0  0  0  0  0  0  0  0  0  0
    1.1335   54.1610  127.0374 C   0  0  0  0  0  0  0  0  0  0  0  0
   -0.0220   53.7989  127.7119 O   0  0  0  0  0  0  0  0  0  0  0  0
    1.6467   55.2718  127.2853 O   0  0  0  0  0  0  0  0  0  0  0  0
   -0.4800   52.9023  127.5750 H   0  0  0  0  0  0  0  0  0  0  0  0
    1.9593   51.8623  126.6938 C   0  0  0  0  0  0  0  0  0  0  0  0
    0.7361   51.2731  127.0456 O   0  0  0  0  0  0  0  0  0  0  0  0
    0.4178   51.5842  127.9441 H   0  0  0  0  0  0  0  0  0  0  0  0
    5.0067   54.3588  122.4631 C   0  0  0  0  0  0  0  0  0  0  0  0
    6.4963   54.1685  122.2432 C   0  0  0  0  0  0  0  0  0  0  0  0
    4.1422   53.3259  121.8579 C   0  0  0  0  0  0  0  0  0  0  0  0
    8.6507   54.4391  126.3949 C   0  0  0  0  0  0  0  0  0  0  0  0
    8.8584   55.6587  125.8122 O   0  0  0  0  0  0  0  0  0  0  0  0
    9.1031   56.3355  126.5044 H   0  0  0  0  0  0  0  0  0  0  0  0
    5.7123   50.5936  129.7958 C   0  0  0  0  0  0  0  0  0  0  0  0
    4.7297   49.7273  129.3367 O   0  0  0  0  0  0  0  0  0  0  0  0
    5.1203   48.8039  129.4333 H   0  0  0  0  0  0  0  0  0  0  0  0
 32 33  1  0  0  0
 33 34  1  0  0  0
 33 31  1  0  0  0
 31  5  1  0  0  0
  5  6  1  0  0  0
  6  7  1  0  0  0
  7  8  2  0  0  0
  7 10  1  0  0  0
 10 24  1  0  0  0
 24 25  1  0  0  0
 25 26  1  0  0  0
 26 27  1  0  0  0
 26 28  2  0  0  0
 10 11  1  0  0  0
 11 12  1  0  0  0
 12 13  2  0  0  0
 12 15  1  0  0  0
 15 16  1  0  0  0
 16 17  1  0  0  0
 17 18  1  0  0  0
 17 19  2  0  0  0
 15 21  1  0  0  0
 21 22  1  0  0  0
 21 23  1  0  0  0
  5  1  1  0  0  0
  1  2  2  0  0  0
  1  3  1  0  0  0
  3 35  1  0  0  0
 35 64  1  0  0  0
 64 65  1  0  0  0
 35 36  1  0  0  0
 36 37  2  0  0  0
 36 38  1  0  0  0
 38 40  1  0  0  0
 40 61  1  0  0  0
 61 62  1  0  0  0
 40 41  1  0  0  0
 41 42  2  0  0  0
 41 43  1  0  0  0
 43 45  1  0  0  0
 45 58  1  0  0  0
 58 59  1  0  0  0
 58 60  1  0  0  0
 45 46  1  0  0  0
 46 47  2  0  0  0
 46 48  1  0  0  0
 48 50  1  0  0  0
 50 55  1  0  0  0
 55 56  1  0  0  0
 50 51  1  0  0  0
 51 52  1  0  0  0
 51 53  2  0  0  0
  6  9  1  0  0  0
 27 29  1  0  0  0
 27 30  1  0  0  0
 11 14  1  0  0  0
 16 20  1  0  0  0
  3  4  1  0  0  0
 65 66  1  0  0  0
 38 39  1  0  0  0
 62 63  1  0  0  0
 43 44  1  0  0  0
 48 49  1  0  0  0
 56 57  1  0  0  0
 52 54  1  0  0  0
M  END
> <minimizedAffinity>
-1.80392

> <CNNscore>
0.3330013752

> <CNNaffinity>
7.3300657272

> <CNN_VS>
2.4409220219

> <CNNaffinity_variance>
0.2266623229

$$$$
[H]OC(=O)[C@@]([H])(N([H])C(=O)[C@@]([H])(N([H])C(=O)[C@@]([H])(N([H])C(=O)[C@@]([H])(N([H])C(=O)[C@@]([H])(N([H])C(=O)[C@@]([H])(N([H])C(=O)[C@@]([H])(N([H])C(=O)C([H])([H])[H])C([H])(C([H])([H])[H])C([H])([H])[H])C([H])([H])C([H])([H])C(=O)N([H])[H])C([H])([H])C([H])(C([H])([H])[H])C([H])([H])[H])C([H])([H])O[H])C([H])([H])O[H])C([H])(C([H])([H])[H])C([H])([H])[H])C([H])([H])O[H]


 66 65  0  0  0  0  0  0  0  0999 V2000
    8.9508   49.3202  130.2265 C   0  0  0  0  0  0  0  0  0  0  0  0
    9.7895   49.6762  129.3724 O   0  0  0  0  0  0  0  0  0  0  0  0
    7.5862   49.5199  129.9975 N   0  0  0  0  0  0  0  0  0  0  0  0
    6.8794   49.2438  130.6960 H   0  0  0  0  0  0  0  0  0  0  0  0
    9.4461   48.6770  131.4823 C   0  0  0  0  0  0  0  0  0  0  0  0
   10.3649   47.6257  131.1692 N   0  0  0  0  0  0  0  0  0  0  0  0
   10.0907   46.6165  130.1851 C   0  0  0  0  0  0  0  0  0  0  0  0
    8.9885   46.7129  129.5910 O   0  0  0  0  0  0  0  0  0  0  0  0
   11.2707   47.5427  131.6342 H   0  0  0  0  0  0  0  0  0  0  0  0
   10.9981   45.5311  129.8558 C   0  0  0  0  0  0  0  0  0  0  0  0
   11.0125   44.5484  130.9242 N   0  0  0  0  0  0  0  0  0  0  0  0
   11.8195   44.5746  132.0659 C   0  0  0  0  0  0  0  0  0  0  0  0
   12.6213   45.5325  132.2069 O   0  0  0  0  0  0  0  0  0  0  0  0
   10.3511   43.7327  130.8121 H   0  0  0  0  0  0  0  0  0  0  0  0
   11.7801   43.5407  133.1083 C   0  0  0  0  0  0  0  0  0  0  0  0
   11.3616   44.1023  134.3959 N   0  0  0  0  0  0  0  0  0  0  0  0
   10.3459   45.0823  134.4889 C   0  0  0  0  0  0  0  0  0  0  0  0
    9.9145   45.6596  135.7841 C   0  0  0  0  0  0  0  0  0  0  0  0
    9.7793   45.4889  133.4455 O   0  0  0  0  0  0  0  0  0  0  0  0
   11.8107   43.7871  135.2809 H   0  0  0  0  0  0  0  0  0  0  0  0
   10.8534   42.3884  132.8400 C   0  0  0  0  0  0  0  0  0  0  0  0
    9.3962   42.7554  132.9798 C   0  0  0  0  0  0  0  0  0  0  0  0
   11.1683   41.5741  131.6218 C   0  0  0  0  0  0  0  0  0  0  0  0
   10.8546   44.8647  128.5500 C   0  0  0  0  0  0  0  0  0  0  0  0
   10.4779   43.4314  128.5378 C   0  0  0  0  0  0  0  0  0  0  0  0
    9.0362   43.3566  128.9787 C   0  0  0  0  0  0  0  0  0  0  0  0
    8.1173   44.3381  128.5352 N   0  0  0  0  0  0  0  0  0  0  0  0
    8.6128   42.4449  129.7342 O   0  0  0  0  0  0  0  0  0  0  0  0
    7.2172   44.4387  129.0220 H   0  0  0  0  0  0  0  0  0  0  0  0
    8.3307   44.9636  127.7285 H   0  0  0  0  0  0  0  0  0  0  0  0
    9.8248   49.6909  132.4618 C   0  0  0  0  0  0  0  0  0  0  0  0
   11.2376   48.5032  134.2195 C   0  0  0  0  0  0  0  0  0  0  0  0
   10.0657   49.3374  133.8701 C   0  0  0  0  0  0  0  0  0  0  0  0
    8.8261   48.5327  134.3264 C   0  0  0  0  0  0  0  0  0  0  0  0
    7.0841   50.1174  128.7719 C   0  0  0  0  0  0  0  0  0  0  0  0
    7.0072   51.5888  128.7989 C   0  0  0  0  0  0  0  0  0  0  0  0
    6.8154   52.2723  129.8279 O   0  0  0  0  0  0  0  0  0  0  0  0
    7.1653   52.2788  127.5746 N   0  0  0  0  0  0  0  0  0  0  0  0
    7.3169   51.7364  126.7044 H   0  0  0  0  0  0  0  0  0  0  0  0
    7.1310   53.7290  127.4343 C   0  0  0  0  0  0  0  0  0  0  0  0
    6.7682   54.1081  126.0571 C   0  0  0  0  0  0  0  0  0  0  0  0
    5.8949   53.3738  125.4519 O   0  0  0  0  0  0  0  0  0  0  0  0
    7.2604   55.1781  125.3104 N   0  0  0  0  0  0  0  0  0  0  0  0
    7.9716   55.8238  125.6678 H   0  0  0  0  0  0  0  0  0  0  0  0
    6.8163   55.4834  123.9275 C   0  0  0  0  0  0  0  0  0  0  0  0
    5.3615   55.1651  123.8276 C   0  0  0  0  0  0  0  0  0  0  0  0
    4.9268   54.5409  122.7954 O   0  0  0  0  0  0  0  0  0  0  0  0
    4.4052   55.5035  124.8020 N   0  0  0  0  0  0  0  0  0  0  0  0
    4.6092   56.0017  125.6895 H   0  0  0  0  0  0  0  0  0  0  0  0
    2.9844   55.1544  124.6379 C   0  0  0  0  0  0  0  0  0  0  0  0
    2.4114   55.0831  126.0361 C   0  0  0  0  0  0  0  0  0  0  0  0
    1.4670   54.1119  126.3298 O   0  0  0  0  0  0  0  0  0  0  0  0
    2.7591   55.8710  126.9399 O   0  0  0  0  0  0  0  0  0  0  0  0
    1.1546   53.4256  125.6488 H   0  0  0  0  0  0  0  0  0  0  0  0
    2.9084   53.7837  123.9992 C   0  0  0  0  0  0  0  0  0  0  0  0
    2.6270   52.8075  124.9661 O   0  0  0  0  0  0  0  0  0  0  0  0
    3.4607   52.4752  125.4133 H   0  0  0  0  0  0  0  0  0  0  0  0
    7.6709   54.7371  122.9619 C   0  0  0  0  0  0  0  0  0  0  0  0
    8.0563   55.5812  121.7608 C   0  0  0  0  0  0  0  0  0  0  0  0
    8.7854   54.0204  123.6135 C   0  0  0  0  0  0  0  0  0  0  0  0
    8.3741   54.3564  127.9807 C   0  0  0  0  0  0  0  0  0  0  0  0
    8.7796   55.4737  127.3042 O   0  0  0  0  0  0  0  0  0  0  0  0
    8.3528   56.2879  127.6940 H   0  0  0  0  0  0  0  0  0  0  0  0
    5.7799   49.4908  128.3518 C   0  0  0  0  0  0  0  0  0  0  0  0
    4.7588   49.8409  129.2244 O   0  0  0  0  0  0  0  0  0  0  0  0
    4.4411   50.7456  128.9158 H   0  0  0  0  0  0  0  0  0  0  0  0
 32 33  1  0  0  0
 33 34  1  0  0  0
 33 31  1  0  0  0
 31  5  1  0  0  0
  5  6  1  0  0  0
  6  7  1  0  0  0
  7  8  2  0  0  0
  7 10  1  0  0  0
 10 24  1  0  0  0
 24 25  1  0  0  0
 25 26  1  0  0  0
 26 27  1  0  0  0
 26 28  2  0  0  0
 10 11  1  0  0  0
 11 12  1  0  0  0
 12 13  2  0  0  0
 12 15  1  0  0  0
 15 16  1  0  0  0
 16 17  1  0  0  0
 17 18  1  0  0  0
 17 19  2  0  0  0
 15 21  1  0  0  0
 21 22  1  0  0  0
 21 23  1  0  0  0
  5  1  1  0  0  0
  1  2  2  0  0  0
  1  3  1  0  0  0
  3 35  1  0  0  0
 35 64  1  0  0  0
 64 65  1  0  0  0
 35 36  1  0  0  0
 36 37  2  0  0  0
 36 38  1  0  0  0
 38 40  1  0  0  0
 40 61  1  0  0  0
 61 62  1  0  0  0
 40 41  1  0  0  0
 41 42  2  0  0  0
 41 43  1  0  0  0
 43 45  1  0  0  0
 45 58  1  0  0  0
 58 59  1  0  0  0
 58 60  1  0  0  0
 45 46  1  0  0  0
 46 47  2  0  0  0
 46 48  1  0  0  0
 48 50  1  0  0  0
 50 55  1  0  0  0
 55 56  1  0  0  0
 50 51  1  0  0  0
 51 52  1  0  0  0
 51 53  2  0  0  0
  6  9  1  0  0  0
 27 29  1  0  0  0
 27 30  1  0  0  0
 11 14  1  0  0  0
 16 20  1  0  0  0
  3  4  1  0  0  0
 65 66  1  0  0  0
 38 39  1  0  0  0
 62 63  1  0  0  0
 43 44  1  0  0  0
 48 49  1  0  0  0
 56 57  1  0  0  0
 52 54  1  0  0  0
M  END
> <minimizedAffinity>
0.61481

> <CNNscore>
0.3317795098

> <CNNaffinity>
7.2635231018

> <CNN_VS>
2.4098880291

> <CNNaffinity_variance>
0.2006924450

$$$$
[H]OC(=O)[C@@]([H])(N([H])C(=O)[C@@]([H])(N([H])C(=O)[C@@]([H])(N([H])C(=O)[C@@]([H])(N([H])C(=O)[C@@]([H])(N([H])C(=O)[C@@]([H])(N([H])C(=O)[C@@]([H])(N([H])C(=O)C([H])([H])[H])C([H])(C([H])([H])[H])C([H])([H])[H])C([H])([H])C([H])([H])C(=O)N([H])[H])C([H])([H])C([H])(C([H])([H])[H])C([H])([H])[H])C([H])([H])O[H])C([H])([H])O[H])C([H])(C([H])([H])[H])C([H])([H])[H])C([H])([H])O[H]


 66 65  0  0  0  0  0  0  0  0999 V2000
    7.2201   49.9701  130.4875 C   0  0  0  0  0  0  0  0  0  0  0  0
    6.0381   50.2596  130.7681 O   0  0  0  0  0  0  0  0  0  0  0  0
    7.7479   50.3050  129.2370 N   0  0  0  0  0  0  0  0  0  0  0  0
    8.7178   50.0635  128.9824 H   0  0  0  0  0  0  0  0  0  0  0  0
    8.0430   49.2685  131.5202 C   0  0  0  0  0  0  0  0  0  0  0  0
    8.4163   47.9682  131.0542 N   0  0  0  0  0  0  0  0  0  0  0  0
    9.5318   47.7432  130.1784 C   0  0  0  0  0  0  0  0  0  0  0  0
   10.1850   48.7631  129.8468 O   0  0  0  0  0  0  0  0  0  0  0  0
    7.9029   47.1280  131.3267 H   0  0  0  0  0  0  0  0  0  0  0  0
    9.9260   46.4371  129.6794 C   0  0  0  0  0  0  0  0  0  0  0  0
    9.9438   45.4712  130.7630 N   0  0  0  0  0  0  0  0  0  0  0  0
   10.9226   45.3537  131.7548 C   0  0  0  0  0  0  0  0  0  0  0  0
   11.8947   46.1504  131.7300 O   0  0  0  0  0  0  0  0  0  0  0  0
    9.1382   44.7889  130.7884 H   0  0  0  0  0  0  0  0  0  0  0  0
   10.8748   44.3471  132.8233 C   0  0  0  0  0  0  0  0  0  0  0  0
   11.4989   43.0914  132.3964 N   0  0  0  0  0  0  0  0  0  0  0  0
   10.7507   41.9017  132.2366 C   0  0  0  0  0  0  0  0  0  0  0  0
   11.3695   40.6251  131.8076 C   0  0  0  0  0  0  0  0  0  0  0  0
    9.5163   41.9106  132.4629 O   0  0  0  0  0  0  0  0  0  0  0  0
   12.5206   43.0491  132.2003 H   0  0  0  0  0  0  0  0  0  0  0  0
   11.5586   44.7329  134.1048 C   0  0  0  0  0  0  0  0  0  0  0  0
   10.5927   45.0189  135.2285 C   0  0  0  0  0  0  0  0  0  0  0  0
   12.7251   43.8784  134.4991 C   0  0  0  0  0  0  0  0  0  0  0  0
    9.2154   45.8846  128.5135 C   0  0  0  0  0  0  0  0  0  0  0  0
    8.2568   44.7779  128.7431 C   0  0  0  0  0  0  0  0  0  0  0  0
    9.0690   43.5081  128.8225 C   0  0  0  0  0  0  0  0  0  0  0  0
   10.1221   43.2924  127.9011 N   0  0  0  0  0  0  0  0  0  0  0  0
    8.8448   42.6220  129.6862 O   0  0  0  0  0  0  0  0  0  0  0  0
   10.5032   42.3442  127.7881 H   0  0  0  0  0  0  0  0  0  0  0  0
   10.5200   44.0705  127.3320 H   0  0  0  0  0  0  0  0  0  0  0  0
    9.0693   50.1612  132.0500 C   0  0  0  0  0  0  0  0  0  0  0  0
   11.0665   48.9885  133.1139 C   0  0  0  0  0  0  0  0  0  0  0  0
    9.8408   49.8068  133.2523 C   0  0  0  0  0  0  0  0  0  0  0  0
    8.8842   48.9828  134.1459 C   0  0  0  0  0  0  0  0  0  0  0  0
    6.9729   51.0114  128.2313 C   0  0  0  0  0  0  0  0  0  0  0  0
    7.1094   52.4780  128.2766 C   0  0  0  0  0  0  0  0  0  0  0  0
    6.8951   53.1815  129.2876 O   0  0  0  0  0  0  0  0  0  0  0  0
    7.5153   53.1383  127.0936 N   0  0  0  0  0  0  0  0  0  0  0  0
    7.6912   52.5802  126.2381 H   0  0  0  0  0  0  0  0  0  0  0  0
    7.7108   54.5778  126.9777 C   0  0  0  0  0  0  0  0  0  0  0  0
    6.4826   55.2301  126.4897 C   0  0  0  0  0  0  0  0  0  0  0  0
    6.6075   56.3950  125.9459 O   0  0  0  0  0  0  0  0  0  0  0  0
    5.1783   54.7400  126.5445 N   0  0  0  0  0  0  0  0  0  0  0  0
    4.9418   53.8373  126.9686 H   0  0  0  0  0  0  0  0  0  0  0  0
    4.0053   55.4744  126.0082 C   0  0  0  0  0  0  0  0  0  0  0  0
    3.9644   55.2658  124.5309 C   0  0  0  0  0  0  0  0  0  0  0  0
    3.0165   55.7967  123.8499 O   0  0  0  0  0  0  0  0  0  0  0  0
    4.9085   54.5147  123.8078 N   0  0  0  0  0  0  0  0  0  0  0  0
    5.7305   54.0340  124.2212 H   0  0  0  0  0  0  0  0  0  0  0  0
    4.8069   54.3533  122.3480 C   0  0  0  0  0  0  0  0  0  0  0  0
    3.7799   53.2659  122.1221 C   0  0  0  0  0  0  0  0  0  0  0  0
    3.5760   52.7864  120.8376 O   0  0  0  0  0  0  0  0  0  0  0  0
    3.1052   52.7822  123.0545 O   0  0  0  0  0  0  0  0  0  0  0  0
    4.1046   53.1195  120.0365 H   0  0  0  0  0  0  0  0  0  0  0  0
    6.1507   53.8825  121.8331 C   0  0  0  0  0  0  0  0  0  0  0  0
    7.1796   54.3140  122.6829 O   0  0  0  0  0  0  0  0  0  0  0  0
    7.4928   55.2375  122.4492 H   0  0  0  0  0  0  0  0  0  0  0  0
    4.0914   56.9037  126.4197 C   0  0  0  0  0  0  0  0  0  0  0  0
    4.3180   57.8310  125.2397 C   0  0  0  0  0  0  0  0  0  0  0  0
    3.0074   57.3048  127.3386 C   0  0  0  0  0  0  0  0  0  0  0  0
    8.9646   54.8963  126.2267 C   0  0  0  0  0  0  0  0  0  0  0  0
    9.1987   54.0765  125.1574 O   0  0  0  0  0  0  0  0  0  0  0  0
    8.7671   54.4469  124.3366 H   0  0  0  0  0  0  0  0  0  0  0  0
    5.5303   50.5771  128.2470 C   0  0  0  0  0  0  0  0  0  0  0  0
    4.7119   51.5955  128.7159 O   0  0  0  0  0  0  0  0  0  0  0  0
    4.5404   52.1891  127.9203 H   0  0  0  0  0  0  0  0  0  0  0  0
 32 33  1  0  0  0
 33 34  1  0  0  0
 33 31  1  0  0  0
 31  5  1  0  0  0
  5  6  1  0  0  0
  6  7  1  0  0  0
  7  8  2  0  0  0
  7 10  1  0  0  0
 10 24  1  0  0  0
 24 25  1  0  0  0
 25 26  1  0  0  0
 26 27  1  0  0  0
 26 28  2  0  0  0
 10 11  1  0  0  0
 11 12  1  0  0  0
 12 13  2  0  0  0
 12 15  1  0  0  0
 15 16  1  0  0  0
 16 17  1  0  0  0
 17 18  1  0  0  0
 17 19  2  0  0  0
 15 21  1  0  0  0
 21 22  1  0  0  0
 21 23  1  0  0  0
  5  1  1  0  0  0
  1  2  2  0  0  0
  1  3  1  0  0  0
  3 35  1  0  0  0
 35 64  1  0  0  0
 64 65  1  0  0  0
 35 36  1  0  0  0
 36 37  2  0  0  0
 36 38  1  0  0  0
 38 40  1  0  0  0
 40 61  1  0  0  0
 61 62  1  0  0  0
 40 41  1  0  0  0
 41 42  2  0  0  0
 41 43  1  0  0  0
 43 45  1  0  0  0
 45 58  1  0  0  0
 58 59  1  0  0  0
 58 60  1  0  0  0
 45 46  1  0  0  0
 46 47  2  0  0  0
 46 48  1  0  0  0
 48 50  1  0  0  0
 50 55  1  0  0  0
 55 56  1  0  0  0
 50 51  1  0  0  0
 51 52  1  0  0  0
 51 53  2  0  0  0
  6  9  1  0  0  0
 27 29  1  0  0  0
 27 30  1  0  0  0
 11 14  1  0  0  0
 16 20  1  0  0  0
  3  4  1  0  0  0
 65 66  1  0  0  0
 38 39  1  0  0  0
 62 63  1  0  0  0
 43 44  1  0  0  0
 48 49  1  0  0  0
 56 57  1  0  0  0
 52 54  1  0  0  0
M  END
> <minimizedAffinity>
4.16192

> <CNNscore>
0.3195403218

> <CNNaffinity>
7.0539541245

> <CNN_VS>
2.2540228367

> <CNNaffinity_variance>
0.6617770791

$$$$
[H]OC(=O)[C@@]([H])(N([H])C(=O)[C@@]([H])(N([H])C(=O)[C@@]([H])(N([H])C(=O)[C@@]([H])(N([H])C(=O)[C@@]([H])(N([H])C(=O)[C@@]([H])(N([H])C(=O)[C@@]([H])(N([H])C(=O)C([H])([H])[H])C([H])(C([H])([H])[H])C([H])([H])[H])C([H])([H])C([H])([H])C(=O)N([H])[H])C([H])([H])C([H])(C([H])([H])[H])C([H])([H])[H])C([H])([H])O[H])C([H])([H])O[H])C([H])(C([H])([H])[H])C([H])([H])[H])C([H])([H])O[H]


 66 65  0  0  0  0  0  0  0  0999 V2000
    7.2505   52.6993  127.9741 C   0  0  0  0  0  0  0  0  0  0  0  0
    6.7467   53.1242  129.0350 O   0  0  0  0  0  0  0  0  0  0  0  0
    7.3225   51.3244  127.7315 N   0  0  0  0  0  0  0  0  0  0  0  0
    7.7459   50.9540  126.8670 H   0  0  0  0  0  0  0  0  0  0  0  0
    7.7618   53.6952  126.9828 C   0  0  0  0  0  0  0  0  0  0  0  0
    7.1247   53.5026  125.7161 N   0  0  0  0  0  0  0  0  0  0  0  0
    7.7725   53.7836  124.4657 C   0  0  0  0  0  0  0  0  0  0  0  0
    8.9543   54.2015  124.5403 O   0  0  0  0  0  0  0  0  0  0  0  0
    6.1690   53.1501  125.6394 H   0  0  0  0  0  0  0  0  0  0  0  0
    7.1468   53.6099  123.1663 C   0  0  0  0  0  0  0  0  0  0  0  0
    5.7945   54.1376  123.1868 N   0  0  0  0  0  0  0  0  0  0  0  0
    5.3624   55.2892  123.8520 C   0  0  0  0  0  0  0  0  0  0  0  0
    6.2073   55.9528  124.5048 O   0  0  0  0  0  0  0  0  0  0  0  0
    5.0728   53.5829  122.6513 H   0  0  0  0  0  0  0  0  0  0  0  0
    3.9725   55.7632  123.8290 C   0  0  0  0  0  0  0  0  0  0  0  0
    3.0537   54.7349  124.3258 N   0  0  0  0  0  0  0  0  0  0  0  0
    2.8160   54.5499  125.7078 C   0  0  0  0  0  0  0  0  0  0  0  0
    1.8912   53.5128  126.2235 C   0  0  0  0  0  0  0  0  0  0  0  0
    3.4023   55.2826  126.5412 O   0  0  0  0  0  0  0  0  0  0  0  0
    2.5509   54.1100  123.6617 H   0  0  0  0  0  0  0  0  0  0  0  0
    3.6962   56.9933  124.6471 C   0  0  0  0  0  0  0  0  0  0  0  0
    4.9206   57.8488  124.8622 C   0  0  0  0  0  0  0  0  0  0  0  0
    2.4678   57.7625  124.2654 C   0  0  0  0  0  0  0  0  0  0  0  0
    7.8631   54.0855  121.9703 C   0  0  0  0  0  0  0  0  0  0  0  0
    7.6022   55.4688  121.5070 C   0  0  0  0  0  0  0  0  0  0  0  0
    8.7468   56.3177  122.0050 C   0  0  0  0  0  0  0  0  0  0  0  0
    9.9742   55.7032  122.3518 N   0  0  0  0  0  0  0  0  0  0  0  0
    8.6526   57.5658  122.1256 O   0  0  0  0  0  0  0  0  0  0  0  0
   10.6545   56.2263  122.9181 H   0  0  0  0  0  0  0  0  0  0  0  0
   10.2054   54.7322  122.0494 H   0  0  0  0  0  0  0  0  0  0  0  0
    7.7974   55.0308  127.5707 C   0  0  0  0  0  0  0  0  0  0  0  0
    9.0881   56.9561  126.5108 C   0  0  0  0  0  0  0  0  0  0  0  0
    7.8129   56.2355  126.7252 C   0  0  0  0  0  0  0  0  0  0  0  0
    6.8671   57.2499  127.4100 C   0  0  0  0  0  0  0  0  0  0  0  0
    6.8059   50.3425  128.6697 C   0  0  0  0  0  0  0  0  0  0  0  0
    7.5912   50.2135  129.9100 C   0  0  0  0  0  0  0  0  0  0  0  0
    7.1540   50.4519  131.0568 O   0  0  0  0  0  0  0  0  0  0  0  0
    8.9344   49.7858  129.7973 N   0  0  0  0  0  0  0  0  0  0  0  0
    9.3253   49.5896  128.8575 H   0  0  0  0  0  0  0  0  0  0  0  0
    9.8368   49.5942  130.9254 C   0  0  0  0  0  0  0  0  0  0  0  0
   10.0319   48.1584  131.1951 C   0  0  0  0  0  0  0  0  0  0  0  0
   10.4936   47.4329  130.2314 O   0  0  0  0  0  0  0  0  0  0  0  0
    9.7733   47.4716  132.3808 N   0  0  0  0  0  0  0  0  0  0  0  0
    9.3866   47.9274  133.2134 H   0  0  0  0  0  0  0  0  0  0  0  0
   10.0193   46.0182  132.5545 C   0  0  0  0  0  0  0  0  0  0  0  0
    9.2491   45.2896  131.5040 C   0  0  0  0  0  0  0  0  0  0  0  0
    7.9828   45.1444  131.6439 O   0  0  0  0  0  0  0  0  0  0  0  0
    9.8169   44.7363  130.3423 N   0  0  0  0  0  0  0  0  0  0  0  0
   10.8233   44.7805  130.0916 H   0  0  0  0  0  0  0  0  0  0  0  0
    8.9940   44.0317  129.3453 C   0  0  0  0  0  0  0  0  0  0  0  0
    8.9107   42.5967  129.8167 C   0  0  0  0  0  0  0  0  0  0  0  0
    7.7475   42.1528  130.4258 O   0  0  0  0  0  0  0  0  0  0  0  0
    9.8561   41.7934  129.6772 O   0  0  0  0  0  0  0  0  0  0  0  0
    6.9325   42.7463  130.5522 H   0  0  0  0  0  0  0  0  0  0  0  0
    9.7223   44.0774  128.0186 C   0  0  0  0  0  0  0  0  0  0  0  0
   11.0831   44.3538  128.2159 O   0  0  0  0  0  0  0  0  0  0  0  0
   11.2593   45.3396  128.2664 H   0  0  0  0  0  0  0  0  0  0  0  0
    9.6707   45.6249  133.9486 C   0  0  0  0  0  0  0  0  0  0  0  0
   10.8024   44.8864  134.6396 C   0  0  0  0  0  0  0  0  0  0  0  0
    9.0697   46.7278  134.7250 C   0  0  0  0  0  0  0  0  0  0  0  0
    9.4275   50.4309  132.0958 C   0  0  0  0  0  0  0  0  0  0  0  0
    9.9261   49.9980  133.2935 O   0  0  0  0  0  0  0  0  0  0  0  0
   10.8150   50.4173  133.4698 H   0  0  0  0  0  0  0  0  0  0  0  0
    6.5824   49.0111  128.0010 C   0  0  0  0  0  0  0  0  0  0  0  0
    7.3172   48.0134  128.6267 O   0  0  0  0  0  0  0  0  0  0  0  0
    6.7618   47.7270  129.4167 H   0  0  0  0  0  0  0  0  0  0  0  0
 32 33  1  0  0  0
 33 34  1  0  0  0
 33 31  1  0  0  0
 31  5  1  0  0  0
  5  6  1  0  0  0
  6  7  1  0  0  0
  7  8  2  0  0  0
  7 10  1  0  0  0
 10 24  1  0  0  0
 24 25  1  0  0  0
 25 26  1  0  0  0
 26 27  1  0  0  0
 26 28  2  0  0  0
 10 11  1  0  0  0
 11 12  1  0  0  0
 12 13  2  0  0  0
 12 15  1  0  0  0
 15 16  1  0  0  0
 16 17  1  0  0  0
 17 18  1  0  0  0
 17 19  2  0  0  0
 15 21  1  0  0  0
 21 22  1  0  0  0
 21 23  1  0  0  0
  5  1  1  0  0  0
  1  2  2  0  0  0
  1  3  1  0  0  0
  3 35  1  0  0  0
 35 64  1  0  0  0
 64 65  1  0  0  0
 35 36  1  0  0  0
 36 37  2  0  0  0
 36 38  1  0  0  0
 38 40  1  0  0  0
 40 61  1  0  0  0
 61 62  1  0  0  0
 40 41  1  0  0  0
 41 42  2  0  0  0
 41 43  1  0  0  0
 43 45  1  0  0  0
 45 58  1  0  0  0
 58 59  1  0  0  0
 58 60  1  0  0  0
 45 46  1  0  0  0
 46 47  2  0  0  0
 46 48  1  0  0  0
 48 50  1  0  0  0
 50 55  1  0  0  0
 55 56  1  0  0  0
 50 51  1  0  0  0
 51 52  1  0  0  0
 51 53  2  0  0  0
  6  9  1  0  0  0
 27 29  1  0  0  0
 27 30  1  0  0  0
 11 14  1  0  0  0
 16 20  1  0  0  0
  3  4  1  0  0  0
 65 66  1  0  0  0
 38 39  1  0  0  0
 62 63  1  0  0  0
 43 44  1  0  0  0
 48 49  1  0  0  0
 56 57  1  0  0  0
 52 54  1  0  0  0
M  END
> <minimizedAffinity>
-2.09566

> <CNNscore>
0.3187974393

> <CNNaffinity>
7.1494269371

> <CNN_VS>
2.2792189121

> <CNNaffinity_variance>
0.2119089663

$$$$
[H]OC(=O)[C@@]([H])(N([H])C(=O)[C@@]([H])(N([H])C(=O)[C@@]([H])(N([H])C(=O)[C@@]([H])(N([H])C(=O)[C@@]([H])(N([H])C(=O)[C@@]([H])(N([H])C(=O)[C@@]([H])(N([H])C(=O)C([H])([H])[H])C([H])(C([H])([H])[H])C([H])([H])[H])C([H])([H])C([H])([H])C(=O)N([H])[H])C([H])([H])C([H])(C([H])([H])[H])C([H])([H])[H])C([H])([H])O[H])C([H])([H])O[H])C([H])(C([H])([H])[H])C([H])([H])[H])C([H])([H])O[H]


 66 65  0  0  0  0  0  0  0  0999 V2000
    7.9355   49.1643  129.6348 C   0  0  0  0  0  0  0  0  0  0  0  0
    7.5790   48.3755  128.7346 O   0  0  0  0  0  0  0  0  0  0  0  0
    7.6184   50.5229  129.5450 N   0  0  0  0  0  0  0  0  0  0  0  0
    7.9146   51.1917  130.2722 H   0  0  0  0  0  0  0  0  0  0  0  0
    8.6969   48.6152  130.7987 C   0  0  0  0  0  0  0  0  0  0  0  0
    9.3356   47.3872  130.4358 N   0  0  0  0  0  0  0  0  0  0  0  0
    8.6705   46.1157  130.4893 C   0  0  0  0  0  0  0  0  0  0  0  0
    7.4722   46.1373  130.8643 O   0  0  0  0  0  0  0  0  0  0  0  0
   10.3052   47.3559  130.1157 H   0  0  0  0  0  0  0  0  0  0  0  0
    9.2969   44.8527  130.1395 C   0  0  0  0  0  0  0  0  0  0  0  0
    9.5134   44.0536  131.3320 N   0  0  0  0  0  0  0  0  0  0  0  0
   10.1552   44.4671  132.5037 C   0  0  0  0  0  0  0  0  0  0  0  0
   10.5984   45.6422  132.5573 O   0  0  0  0  0  0  0  0  0  0  0  0
    9.1555   43.0606  131.2954 H   0  0  0  0  0  0  0  0  0  0  0  0
   10.3396   43.5996  133.6743 C   0  0  0  0  0  0  0  0  0  0  0  0
   10.3900   42.1875  133.2846 N   0  0  0  0  0  0  0  0  0  0  0  0
   11.1807   41.7392  132.2008 C   0  0  0  0  0  0  0  0  0  0  0  0
   11.2393   40.3149  131.7952 C   0  0  0  0  0  0  0  0  0  0  0  0
   11.8636   42.5656  131.5482 O   0  0  0  0  0  0  0  0  0  0  0  0
    9.8359   41.4756  133.8047 H   0  0  0  0  0  0  0  0  0  0  0  0
   11.5865   43.8514  134.4746 C   0  0  0  0  0  0  0  0  0  0  0  0
   12.2797   45.1389  134.1013 C   0  0  0  0  0  0  0  0  0  0  0  0
   11.4655   43.6238  135.9510 C   0  0  0  0  0  0  0  0  0  0  0  0
    8.6859   44.0333  129.0789 C   0  0  0  0  0  0  0  0  0  0  0  0
    9.5627   43.5328  127.9940 C   0  0  0  0  0  0  0  0  0  0  0  0
   10.7921   44.4087  127.9890 C   0  0  0  0  0  0  0  0  0  0  0  0
   11.9524   43.9896  128.6836 N   0  0  0  0  0  0  0  0  0  0  0  0
   10.8275   45.5106  127.3841 O   0  0  0  0  0  0  0  0  0  0  0  0
   12.6870   44.6777  128.8936 H   0  0  0  0  0  0  0  0  0  0  0  0
   12.0804   43.0010  128.9900 H   0  0  0  0  0  0  0  0  0  0  0  0
    9.4795   49.6670  131.4406 C   0  0  0  0  0  0  0  0  0  0  0  0
    9.5689   48.4044  133.6528 C   0  0  0  0  0  0  0  0  0  0  0  0
   10.0992   49.4587  132.7593 C   0  0  0  0  0  0  0  0  0  0  0  0
    9.9231   50.7890  133.5286 C   0  0  0  0  0  0  0  0  0  0  0  0
    6.8554   51.0703  128.4362 C   0  0  0  0  0  0  0  0  0  0  0  0
    6.9625   52.5324  128.2865 C   0  0  0  0  0  0  0  0  0  0  0  0
    6.8962   53.3507  129.2294 O   0  0  0  0  0  0  0  0  0  0  0  0
    7.1579   53.0484  126.9844 N   0  0  0  0  0  0  0  0  0  0  0  0
    7.2077   52.3928  126.1830 H   0  0  0  0  0  0  0  0  0  0  0  0
    7.2981   54.4645  126.6704 C   0  0  0  0  0  0  0  0  0  0  0  0
    6.2300   54.9003  125.7531 C   0  0  0  0  0  0  0  0  0  0  0  0
    5.7017   56.0591  125.9682 O   0  0  0  0  0  0  0  0  0  0  0  0
    5.7065   54.2049  124.6636 N   0  0  0  0  0  0  0  0  0  0  0  0
    6.0250   53.2674  124.3984 H   0  0  0  0  0  0  0  0  0  0  0  0
    4.6345   54.7419  123.7889 C   0  0  0  0  0  0  0  0  0  0  0  0
    3.3284   54.2092  124.2770 C   0  0  0  0  0  0  0  0  0  0  0  0
    2.3605   54.0690  123.4478 O   0  0  0  0  0  0  0  0  0  0  0  0
    3.0692   53.8379  125.6086 N   0  0  0  0  0  0  0  0  0  0  0  0
    3.7553   53.8897  126.3860 H   0  0  0  0  0  0  0  0  0  0  0  0
    1.7552   53.3162  126.0190 C   0  0  0  0  0  0  0  0  0  0  0  0
    1.2430   54.2692  127.0762 C   0  0  0  0  0  0  0  0  0  0  0  0
    0.1692   53.8880  127.8654 O   0  0  0  0  0  0  0  0  0  0  0  0
    1.7541   55.3925  127.2649 O   0  0  0  0  0  0  0  0  0  0  0  0
   -0.2805   52.9809  127.7803 H   0  0  0  0  0  0  0  0  0  0  0  0
    1.9651   51.9513  126.6400 C   0  0  0  0  0  0  0  0  0  0  0  0
    0.7359   51.3889  127.0142 O   0  0  0  0  0  0  0  0  0  0  0  0
    0.4547   51.6844  127.9302 H   0  0  0  0  0  0  0  0  0  0  0  0
    4.9405   54.4001  122.3715 C   0  0  0  0  0  0  0  0  0  0  0  0
    6.4227   54.1682  122.1411 C   0  0  0  0  0  0  0  0  0  0  0  0
    4.0464   53.3605  121.8237 C   0  0  0  0  0  0  0  0  0  0  0  0
    8.6960   54.7913  126.2504 C   0  0  0  0  0  0  0  0  0  0  0  0
    8.8852   56.1025  125.9109 O   0  0  0  0  0  0  0  0  0  0  0  0
    9.1409   56.6348  126.7162 H   0  0  0  0  0  0  0  0  0  0  0  0
    5.4215   50.6098  128.4783 C   0  0  0  0  0  0  0  0  0  0  0  0
    5.1490   49.9474  129.6673 O   0  0  0  0  0  0  0  0  0  0  0  0
    4.9519   50.6721  130.3386 H   0  0  0  0  0  0  0  0  0  0  0  0
 32 33  1  0  0  0
 33 34  1  0  0  0
 33 31  1  0  0  0
 31  5  1  0  0  0
  5  6  1  0  0  0
  6  7  1  0  0  0
  7  8  2  0  0  0
  7 10  1  0  0  0
 10 24  1  0  0  0
 24 25  1  0  0  0
 25 26  1  0  0  0
 26 27  1  0  0  0
 26 28  2  0  0  0
 10 11  1  0  0  0
 11 12  1  0  0  0
 12 13  2  0  0  0
 12 15  1  0  0  0
 15 16  1  0  0  0
 16 17  1  0  0  0
 17 18  1  0  0  0
 17 19  2  0  0  0
 15 21  1  0  0  0
 21 22  1  0  0  0
 21 23  1  0  0  0
  5  1  1  0  0  0
  1  2  2  0  0  0
  1  3  1  0  0  0
  3 35  1  0  0  0
 35 64  1  0  0  0
 64 65  1  0  0  0
 35 36  1  0  0  0
 36 37  2  0  0  0
 36 38  1  0  0  0
 38 40  1  0  0  0
 40 61  1  0  0  0
 61 62  1  0  0  0
 40 41  1  0  0  0
 41 42  2  0  0  0
 41 43  1  0  0  0
 43 45  1  0  0  0
 45 58  1  0  0  0
 58 59  1  0  0  0
 58 60  1  0  0  0
 45 46  1  0  0  0
 46 47  2  0  0  0
 46 48  1  0  0  0
 48 50  1  0  0  0
 50 55  1  0  0  0
 55 56  1  0  0  0
 50 51  1  0  0  0
 51 52  1  0  0  0
 51 53  2  0  0  0
  6  9  1  0  0  0
 27 29  1  0  0  0
 27 30  1  0  0  0
 11 14  1  0  0  0
 16 20  1  0  0  0
  3  4  1  0  0  0
 65 66  1  0  0  0
 38 39  1  0  0  0
 62 63  1  0  0  0
 43 44  1  0  0  0
 48 49  1  0  0  0
 56 57  1  0  0  0
 52 54  1  0  0  0
M  END
> <minimizedAffinity>
-1.85753

> <CNNscore>
0.3133351505

> <CNNaffinity>
7.3492498398

> <CNN_VS>
2.3027782440

> <CNNaffinity_variance>
0.4301527143

$$$$
[H]OC(=O)[C@@]([H])(N([H])C(=O)[C@@]([H])(N([H])C(=O)[C@@]([H])(N([H])C(=O)[C@@]([H])(N([H])C(=O)[C@@]([H])(N([H])C(=O)[C@@]([H])(N([H])C(=O)[C@@]([H])(N([H])C(=O)C([H])([H])[H])C([H])(C([H])([H])[H])C([H])([H])[H])C([H])([H])C([H])([H])C(=O)N([H])[H])C([H])([H])C([H])(C([H])([H])[H])C([H])([H])[H])C([H])([H])O[H])C([H])([H])O[H])C([H])(C([H])([H])[H])C([H])([H])[H])C([H])([H])O[H]


 66 65  0  0  0  0  0  0  0  0999 V2000
    7.5410   49.6425  128.3465 C   0  0  0  0  0  0  0  0  0  0  0  0
    7.1158   49.3727  127.2036 O   0  0  0  0  0  0  0  0  0  0  0  0
    8.0909   48.6373  129.1473 N   0  0  0  0  0  0  0  0  0  0  0  0
    8.4361   48.8381  130.0983 H   0  0  0  0  0  0  0  0  0  0  0  0
    7.4494   51.0573  128.8218 C   0  0  0  0  0  0  0  0  0  0  0  0
    7.0066   51.9074  127.7594 N   0  0  0  0  0  0  0  0  0  0  0  0
    7.1654   53.3344  127.7835 C   0  0  0  0  0  0  0  0  0  0  0  0
    7.7363   53.8071  128.7971 O   0  0  0  0  0  0  0  0  0  0  0  0
    6.5533   51.5359  126.9226 H   0  0  0  0  0  0  0  0  0  0  0  0
    6.7147   54.2228  126.7263 C   0  0  0  0  0  0  0  0  0  0  0  0
    7.3467   53.8664  125.4689 N   0  0  0  0  0  0  0  0  0  0  0  0
    7.8556   54.7528  124.5145 C   0  0  0  0  0  0  0  0  0  0  0  0
    7.7708   55.9862  124.7419 O   0  0  0  0  0  0  0  0  0  0  0  0
    7.4140   52.8331  125.2610 H   0  0  0  0  0  0  0  0  0  0  0  0
    8.4828   54.3179  123.2598 C   0  0  0  0  0  0  0  0  0  0  0  0
    7.4938   53.7385  122.3462 N   0  0  0  0  0  0  0  0  0  0  0  0
    6.1229   54.0796  122.4150 C   0  0  0  0  0  0  0  0  0  0  0  0
    5.1124   53.4998  121.4988 C   0  0  0  0  0  0  0  0  0  0  0  0
    5.7313   54.9020  123.2784 O   0  0  0  0  0  0  0  0  0  0  0  0
    7.7847   53.0532  121.6181 H   0  0  0  0  0  0  0  0  0  0  0  0
    9.1828   55.3955  122.4804 C   0  0  0  0  0  0  0  0  0  0  0  0
    8.3500   55.9424  121.3468 C   0  0  0  0  0  0  0  0  0  0  0  0
    9.8705   56.4450  123.3002 C   0  0  0  0  0  0  0  0  0  0  0  0
    5.2665   54.4123  126.5350 C   0  0  0  0  0  0  0  0  0  0  0  0
    4.7766   55.7794  126.2396 C   0  0  0  0  0  0  0  0  0  0  0  0
    3.4708   55.6230  125.4986 C   0  0  0  0  0  0  0  0  0  0  0  0
    2.7713   54.3939  125.5656 N   0  0  0  0  0  0  0  0  0  0  0  0
    2.9725   56.5535  124.8151 O   0  0  0  0  0  0  0  0  0  0  0  0
    2.0330   54.1989  124.8771 H   0  0  0  0  0  0  0  0  0  0  0  0
    2.9871   53.6797  126.2943 H   0  0  0  0  0  0  0  0  0  0  0  0
    6.7777   51.1200  130.1163 C   0  0  0  0  0  0  0  0  0  0  0  0
    4.9157   49.5596  129.3457 C   0  0  0  0  0  0  0  0  0  0  0  0
    5.6651   50.2133  130.4422 C   0  0  0  0  0  0  0  0  0  0  0  0
    4.6283   51.0680  131.2084 C   0  0  0  0  0  0  0  0  0  0  0  0
    8.2142   47.2628  128.6924 C   0  0  0  0  0  0  0  0  0  0  0  0
    7.8181   46.2534  129.6904 C   0  0  0  0  0  0  0  0  0  0  0  0
    7.0225   46.4586  130.6326 O   0  0  0  0  0  0  0  0  0  0  0  0
    8.3740   44.9583  129.5732 N   0  0  0  0  0  0  0  0  0  0  0  0
    9.0434   44.7629  128.8062 H   0  0  0  0  0  0  0  0  0  0  0  0
    8.0737   43.8474  130.4674 C   0  0  0  0  0  0  0  0  0  0  0  0
    8.6169   44.1040  131.8132 C   0  0  0  0  0  0  0  0  0  0  0  0
    7.7879   44.5033  132.7196 O   0  0  0  0  0  0  0  0  0  0  0  0
    9.9383   43.9701  132.2383 N   0  0  0  0  0  0  0  0  0  0  0  0
   10.6962   43.6804  131.6121 H   0  0  0  0  0  0  0  0  0  0  0  0
   10.3819   44.2419  133.6283 C   0  0  0  0  0  0  0  0  0  0  0  0
    9.9522   45.6250  133.9893 C   0  0  0  0  0  0  0  0  0  0  0  0
    9.7798   45.9245  135.2240 O   0  0  0  0  0  0  0  0  0  0  0  0
    9.7166   46.6525  133.0582 N   0  0  0  0  0  0  0  0  0  0  0  0
    9.8211   46.5600  132.0295 H   0  0  0  0  0  0  0  0  0  0  0  0
    9.2965   47.9967  133.4871 C   0  0  0  0  0  0  0  0  0  0  0  0
    9.6845   48.9305  132.3620 C   0  0  0  0  0  0  0  0  0  0  0  0
    9.6295   50.2995  132.5718 O   0  0  0  0  0  0  0  0  0  0  0  0
   10.0538   48.5115  131.2455 O   0  0  0  0  0  0  0  0  0  0  0  0
    9.3588   50.7086  133.4615 H   0  0  0  0  0  0  0  0  0  0  0  0
   10.0832   48.3606  134.7286 C   0  0  0  0  0  0  0  0  0  0  0  0
   11.4358   48.5544  134.4122 O   0  0  0  0  0  0  0  0  0  0  0  0
   11.9485   47.6928  134.4257 H   0  0  0  0  0  0  0  0  0  0  0  0
   11.8510   44.0148  133.7277 C   0  0  0  0  0  0  0  0  0  0  0  0
   12.3513   43.0169  132.6993 C   0  0  0  0  0  0  0  0  0  0  0  0
   12.6231   45.2704  133.8166 C   0  0  0  0  0  0  0  0  0  0  0  0
    8.4465   42.5373  129.8493 C   0  0  0  0  0  0  0  0  0  0  0  0
    9.7631   42.4429  129.4916 O   0  0  0  0  0  0  0  0  0  0  0  0
   10.3039   42.0900  130.2533 H   0  0  0  0  0  0  0  0  0  0  0  0
    9.5854   46.9934  128.1293 C   0  0  0  0  0  0  0  0  0  0  0  0
   10.4575   46.5795  129.1268 O   0  0  0  0  0  0  0  0  0  0  0  0
   10.2914   45.5920  129.2351 H   0  0  0  0  0  0  0  0  0  0  0  0
 32 33  1  0  0  0
 33 34  1  0  0  0
 33 31  1  0  0  0
 31  5  1  0  0  0
  5  6  1  0  0  0
  6  7  1  0  0  0
  7  8  2  0  0  0
  7 10  1  0  0  0
 10 24  1  0  0  0
 24 25  1  0  0  0
 25 26  1  0  0  0
 26 27  1  0  0  0
 26 28  2  0  0  0
 10 11  1  0  0  0
 11 12  1  0  0  0
 12 13  2  0  0  0
 12 15  1  0  0  0
 15 16  1  0  0  0
 16 17  1  0  0  0
 17 18  1  0  0  0
 17 19  2  0  0  0
 15 21  1  0  0  0
 21 22  1  0  0  0
 21 23  1  0  0  0
  5  1  1  0  0  0
  1  2  2  0  0  0
  1  3  1  0  0  0
  3 35  1  0  0  0
 35 64  1  0  0  0
 64 65  1  0  0  0
 35 36  1  0  0  0
 36 37  2  0  0  0
 36 38  1  0  0  0
 38 40  1  0  0  0
 40 61  1  0  0  0
 61 62  1  0  0  0
 40 41  1  0  0  0
 41 42  2  0  0  0
 41 43  1  0  0  0
 43 45  1  0  0  0
 45 58  1  0  0  0
 58 59  1  0  0  0
 58 60  1  0  0  0
 45 46  1  0  0  0
 46 47  2  0  0  0
 46 48  1  0  0  0
 48 50  1  0  0  0
 50 55  1  0  0  0
 55 56  1  0  0  0
 50 51  1  0  0  0
 51 52  1  0  0  0
 51 53  2  0  0  0
  6  9  1  0  0  0
 27 29  1  0  0  0
 27 30  1  0  0  0
 11 14  1  0  0  0
 16 20  1  0  0  0
  3  4  1  0  0  0
 65 66  1  0  0  0
 38 39  1  0  0  0
 62 63  1  0  0  0
 43 44  1  0  0  0
 48 49  1  0  0  0
 56 57  1  0  0  0
 52 54  1  0  0  0
M  END
> <minimizedAffinity>
1.88005

> <CNNscore>
0.3094558418

> <CNNaffinity>
6.9677605629

> <CNN_VS>
2.1562142372

> <CNNaffinity_variance>
0.5230787992

$$$$
[H]OC(=O)[C@@]([H])(N([H])C(=O)[C@@]([H])(N([H])C(=O)[C@@]([H])(N([H])C(=O)[C@@]([H])(N([H])C(=O)[C@@]([H])(N([H])C(=O)[C@@]([H])(N([H])C(=O)[C@@]([H])(N([H])C(=O)C([H])([H])[H])C([H])(C([H])([H])[H])C([H])([H])[H])C([H])([H])C([H])([H])C(=O)N([H])[H])C([H])([H])C([H])(C([H])([H])[H])C([H])([H])[H])C([H])([H])O[H])C([H])([H])O[H])C([H])(C([H])([H])[H])C([H])([H])[H])C([H])([H])O[H]


 66 65  0  0  0  0  0  0  0  0999 V2000
    9.0862   49.0168  130.7846 C   0  0  0  0  0  0  0  0  0  0  0  0
    9.6900   50.0870  130.5615 O   0  0  0  0  0  0  0  0  0  0  0  0
    8.1380   48.5416  129.8739 N   0  0  0  0  0  0  0  0  0  0  0  0
    7.6204   47.6664  130.0465 H   0  0  0  0  0  0  0  0  0  0  0  0
    9.4101   48.2673  132.0374 C   0  0  0  0  0  0  0  0  0  0  0  0
    9.8583   46.9460  131.7203 N   0  0  0  0  0  0  0  0  0  0  0  0
   11.2148   46.6484  131.3551 C   0  0  0  0  0  0  0  0  0  0  0  0
   12.0070   47.6226  131.3416 O   0  0  0  0  0  0  0  0  0  0  0  0
    9.2286   46.1418  131.7407 H   0  0  0  0  0  0  0  0  0  0  0  0
   11.6951   45.3200  131.0159 C   0  0  0  0  0  0  0  0  0  0  0  0
   10.6829   44.3269  131.3265 N   0  0  0  0  0  0  0  0  0  0  0  0
   10.8044   43.2745  132.2394 C   0  0  0  0  0  0  0  0  0  0  0  0
   11.8866   43.1525  132.8674 O   0  0  0  0  0  0  0  0  0  0  0  0
    9.7729   44.4118  130.7973 H   0  0  0  0  0  0  0  0  0  0  0  0
    9.7342   42.3035  132.5018 C   0  0  0  0  0  0  0  0  0  0  0  0
    8.5538   42.9578  133.0737 N   0  0  0  0  0  0  0  0  0  0  0  0
    8.6284   44.2302  133.6870 C   0  0  0  0  0  0  0  0  0  0  0  0
    7.4432   44.9019  134.2708 C   0  0  0  0  0  0  0  0  0  0  0  0
    9.7316   44.8255  133.7475 O   0  0  0  0  0  0  0  0  0  0  0  0
    7.6232   42.4918  133.0404 H   0  0  0  0  0  0  0  0  0  0  0  0
    9.2436   41.5434  131.3017 C   0  0  0  0  0  0  0  0  0  0  0  0
    7.9204   42.0488  130.7809 C   0  0  0  0  0  0  0  0  0  0  0  0
   10.2657   41.2853  130.2363 C   0  0  0  0  0  0  0  0  0  0  0  0
   12.2391   45.0910  129.6665 C   0  0  0  0  0  0  0  0  0  0  0  0
   11.5050   44.1696  128.7673 C   0  0  0  0  0  0  0  0  0  0  0  0
   10.1776   44.8218  128.4653 C   0  0  0  0  0  0  0  0  0  0  0  0
   10.1345   46.1954  128.1248 N   0  0  0  0  0  0  0  0  0  0  0  0
    9.0938   44.1854  128.5044 O   0  0  0  0  0  0  0  0  0  0  0  0
    9.2366   46.6946  128.1671 H   0  0  0  0  0  0  0  0  0  0  0  0
   10.9909   46.7150  127.8344 H   0  0  0  0  0  0  0  0  0  0  0  0
   10.2048   49.0960  132.9388 C   0  0  0  0  0  0  0  0  0  0  0  0
   11.4799   47.7768  134.7078 C   0  0  0  0  0  0  0  0  0  0  0  0
   10.3973   48.7202  134.3488 C   0  0  0  0  0  0  0  0  0  0  0  0
    9.0816   48.0384  134.7922 C   0  0  0  0  0  0  0  0  0  0  0  0
    7.8300   49.2410  128.6381 C   0  0  0  0  0  0  0  0  0  0  0  0
    7.1476   50.5339  128.8239 C   0  0  0  0  0  0  0  0  0  0  0  0
    6.3131   50.7749  129.7231 O   0  0  0  0  0  0  0  0  0  0  0  0
    7.4607   51.5789  127.9240 N   0  0  0  0  0  0  0  0  0  0  0  0
    8.1428   51.4038  127.1634 H   0  0  0  0  0  0  0  0  0  0  0  0
    6.8861   52.9169  127.9812 C   0  0  0  0  0  0  0  0  0  0  0  0
    7.4464   53.7677  126.9161 C   0  0  0  0  0  0  0  0  0  0  0  0
    7.9241   54.9156  127.2656 O   0  0  0  0  0  0  0  0  0  0  0  0
    7.5246   53.4850  125.5528 N   0  0  0  0  0  0  0  0  0  0  0  0
    7.1636   52.6171  125.1441 H   0  0  0  0  0  0  0  0  0  0  0  0
    8.1245   54.4097  124.5588 C   0  0  0  0  0  0  0  0  0  0  0  0
    7.3831   55.7035  124.6238 C   0  0  0  0  0  0  0  0  0  0  0  0
    7.9919   56.7897  124.3179 O   0  0  0  0  0  0  0  0  0  0  0  0
    6.0343   55.8284  125.0026 N   0  0  0  0  0  0  0  0  0  0  0  0
    5.4148   55.0395  125.2698 H   0  0  0  0  0  0  0  0  0  0  0  0
    5.3653   57.1393  125.0414 C   0  0  0  0  0  0  0  0  0  0  0  0
    5.3923   57.5752  126.4897 C   0  0  0  0  0  0  0  0  0  0  0  0
    6.6147   57.7486  127.1197 O   0  0  0  0  0  0  0  0  0  0  0  0
    4.3488   57.7852  127.1421 O   0  0  0  0  0  0  0  0  0  0  0  0
    7.5022   57.6160  126.6431 H   0  0  0  0  0  0  0  0  0  0  0  0
    3.9277   56.9458  124.6074 C   0  0  0  0  0  0  0  0  0  0  0  0
    3.7564   55.6790  124.0303 O   0  0  0  0  0  0  0  0  0  0  0  0
    3.9771   55.6826  123.0522 H   0  0  0  0  0  0  0  0  0  0  0  0
    8.1076   53.7646  123.2160 C   0  0  0  0  0  0  0  0  0  0  0  0
    8.5642   52.3179  123.2653 C   0  0  0  0  0  0  0  0  0  0  0  0
    6.8521   54.0054  122.4770 C   0  0  0  0  0  0  0  0  0  0  0  0
    6.9494   53.4758  129.3673 C   0  0  0  0  0  0  0  0  0  0  0  0
    5.8839   53.1378  130.1551 O   0  0  0  0  0  0  0  0  0  0  0  0
    6.0651   52.2795  130.6322 H   0  0  0  0  0  0  0  0  0  0  0  0
    7.0958   48.3480  127.6720 C   0  0  0  0  0  0  0  0  0  0  0  0
    6.0242   47.7216  128.2935 O   0  0  0  0  0  0  0  0  0  0  0  0
    5.2721   48.3911  128.2698 H   0  0  0  0  0  0  0  0  0  0  0  0
 32 33  1  0  0  0
 33 34  1  0  0  0
 33 31  1  0  0  0
 31  5  1  0  0  0
  5  6  1  0  0  0
  6  7  1  0  0  0
  7  8  2  0  0  0
  7 10  1  0  0  0
 10 24  1  0  0  0
 24 25  1  0  0  0
 25 26  1  0  0  0
 26 27  1  0  0  0
 26 28  2  0  0  0
 10 11  1  0  0  0
 11 12  1  0  0  0
 12 13  2  0  0  0
 12 15  1  0  0  0
 15 16  1  0  0  0
 16 17  1  0  0  0
 17 18  1  0  0  0
 17 19  2  0  0  0
 15 21  1  0  0  0
 21 22  1  0  0  0
 21 23  1  0  0  0
  5  1  1  0  0  0
  1  2  2  0  0  0
  1  3  1  0  0  0
  3 35  1  0  0  0
 35 64  1  0  0  0
 64 65  1  0  0  0
 35 36  1  0  0  0
 36 37  2  0  0  0
 36 38  1  0  0  0
 38 40  1  0  0  0
 40 61  1  0  0  0
 61 62  1  0  0  0
 40 41  1  0  0  0
 41 42  2  0  0  0
 41 43  1  0  0  0
 43 45  1  0  0  0
 45 58  1  0  0  0
 58 59  1  0  0  0
 58 60  1  0  0  0
 45 46  1  0  0  0
 46 47  2  0  0  0
 46 48  1  0  0  0
 48 50  1  0  0  0
 50 55  1  0  0  0
 55 56  1  0  0  0
 50 51  1  0  0  0
 51 52  1  0  0  0
 51 53  2  0  0  0
  6  9  1  0  0  0
 27 29  1  0  0  0
 27 30  1  0  0  0
 11 14  1  0  0  0
 16 20  1  0  0  0
  3  4  1  0  0  0
 65 66  1  0  0  0
 38 39  1  0  0  0
 62 63  1  0  0  0
 43 44  1  0  0  0
 48 49  1  0  0  0
 56 57  1  0  0  0
 52 54  1  0  0  0
M  END
> <minimizedAffinity>
4.34616

> <CNNscore>
0.2977817357

> <CNNaffinity>
7.1750135422

> <CNN_VS>
2.1365880966

> <CNNaffinity_variance>
0.1875279248

$$$$
[H]N([H])C(=O)C([H])([H])C([H])([H])[C@@]([H])(C(=O)N([H])[H])N([H])C(=O)[C@@]([H])(N([H])C(=O)[C@@]([H])(N([H])C(=O)[C@@]([H])(N([H])C(=O)[C@@]([H])(N([H])C(=O)[C@@]([H])(N([H])C(=O)C([H])([H])[H])C([H])([H])C([H])([H])C(=O)N([H])[H])C([H])([H])C([H])([H])C(=O)N([H])[H])C([H])([H])C([H])([H])C(=O)N([H])[H])C([H])([H])C([H])(C([H])([H])[H])C([H])([H])[H])C([H])([H])C([H])([H])C(=O)N([H])[H]


 75 74  0  0  0  0  0  0  0  0999 V2000
    7.2167   50.8896  128.2244 N   0  0  0  0  0  0  0  0  0  0  0  0
    7.0811   49.5964  128.7190 C   0  0  0  0  0  0  0  0  0  0  0  0
    6.6658   49.4625  129.9237 O   0  0  0  0  0  0  0  0  0  0  0  0
    7.4825   50.9176  127.1713 H   0  0  0  0  0  0  0  0  0  0  0  0
    7.3706   48.3636  127.9855 C   0  0  0  0  0  0  0  0  0  0  0  0
    8.5587   47.6697  128.3474 N   0  0  0  0  0  0  0  0  0  0  0  0
    8.9240   47.2450  129.6361 C   0  0  0  0  0  0  0  0  0  0  0  0
    8.2157   47.3756  130.6535 O   0  0  0  0  0  0  0  0  0  0  0  0
    9.2299   47.4627  127.5532 H   0  0  0  0  0  0  0  0  0  0  0  0
   10.2911   46.5891  129.8525 C   0  0  0  0  0  0  0  0  0  0  0  0
   10.2953   45.9292  131.1133 N   0  0  0  0  0  0  0  0  0  0  0  0
   11.5681   45.7361  131.7463 C   0  0  0  0  0  0  0  0  0  0  0  0
   12.5975   46.1543  131.1744 O   0  0  0  0  0  0  0  0  0  0  0  0
    9.4898   45.5911  131.6076 H   0  0  0  0  0  0  0  0  0  0  0  0
   11.7097   45.0519  133.0792 C   0  0  0  0  0  0  0  0  0  0  0  0
   10.6086   45.2879  133.9397 N   0  0  0  0  0  0  0  0  0  0  0  0
   10.0096   46.5210  134.2573 C   0  0  0  0  0  0  0  0  0  0  0  0
    8.8488   46.6222  135.1951 C   0  0  0  0  0  0  0  0  0  0  0  0
   10.4493   47.5750  133.7496 O   0  0  0  0  0  0  0  0  0  0  0  0
   10.1789   44.4217  134.3975 H   0  0  0  0  0  0  0  0  0  0  0  0
   12.1526   43.6604  132.8732 C   0  0  0  0  0  0  0  0  0  0  0  0
   11.2049   42.7522  132.1696 C   0  0  0  0  0  0  0  0  0  0  0  0
    9.8647   42.6460  132.7316 C   0  0  0  0  0  0  0  0  0  0  0  0
    8.7709   42.8768  131.8372 N   0  0  0  0  0  0  0  0  0  0  0  0
    9.5814   42.3763  133.9008 O   0  0  0  0  0  0  0  0  0  0  0  0
    8.7510   42.4182  130.9144 H   0  0  0  0  0  0  0  0  0  0  0  0
    8.0207   43.5109  132.1372 H   0  0  0  0  0  0  0  0  0  0  0  0
   10.7276   45.9131  128.6375 C   0  0  0  0  0  0  0  0  0  0  0  0
   10.9141   44.4432  128.7225 C   0  0  0  0  0  0  0  0  0  0  0  0
    9.7569   43.5961  128.4234 C   0  0  0  0  0  0  0  0  0  0  0  0
    8.4575   43.7445  128.9789 N   0  0  0  0  0  0  0  0  0  0  0  0
    9.8534   42.6213  127.5901 O   0  0  0  0  0  0  0  0  0  0  0  0
    8.3503   43.5196  129.9822 H   0  0  0  0  0  0  0  0  0  0  0  0
    7.6378   44.0579  128.4377 H   0  0  0  0  0  0  0  0  0  0  0  0
    6.2114   47.5013  127.6388 C   0  0  0  0  0  0  0  0  0  0  0  0
    4.9505   47.7204  128.4026 C   0  0  0  0  0  0  0  0  0  0  0  0
    4.8190   46.7869  129.5436 C   0  0  0  0  0  0  0  0  0  0  0  0
    6.0138   46.1999  130.1374 N   0  0  0  0  0  0  0  0  0  0  0  0
    3.7014   46.4876  130.0104 O   0  0  0  0  0  0  0  0  0  0  0  0
    6.3085   46.5800  131.0402 H   0  0  0  0  0  0  0  0  0  0  0  0
    6.4911   45.4490  129.6313 H   0  0  0  0  0  0  0  0  0  0  0  0
    7.0488   52.1538  128.8052 C   0  0  0  0  0  0  0  0  0  0  0  0
    7.4409   53.2914  127.9543 C   0  0  0  0  0  0  0  0  0  0  0  0
    7.8307   54.4063  128.3522 O   0  0  0  0  0  0  0  0  0  0  0  0
    7.4152   53.1524  126.5219 N   0  0  0  0  0  0  0  0  0  0  0  0
    7.0791   52.2389  126.1520 H   0  0  0  0  0  0  0  0  0  0  0  0
    7.8067   54.1230  125.5594 C   0  0  0  0  0  0  0  0  0  0  0  0
    6.7378   55.0687  125.2621 C   0  0  0  0  0  0  0  0  0  0  0  0
    6.9365   56.2161  124.8143 O   0  0  0  0  0  0  0  0  0  0  0  0
    5.3616   54.7024  125.4863 N   0  0  0  0  0  0  0  0  0  0  0  0
    5.0788   53.7837  125.8696 H   0  0  0  0  0  0  0  0  0  0  0  0
    4.3077   55.6737  125.1477 C   0  0  0  0  0  0  0  0  0  0  0  0
    4.1703   56.6065  126.3294 C   0  0  0  0  0  0  0  0  0  0  0  0
    5.2746   57.4180  126.7204 N   0  0  0  0  0  0  0  0  0  0  0  0
    3.1146   56.7045  126.9972 O   0  0  0  0  0  0  0  0  0  0  0  0
    6.2360   57.1934  126.3659 H   0  0  0  0  0  0  0  0  0  0  0  0
    5.1138   58.2477  127.3752 H   0  0  0  0  0  0  0  0  0  0  0  0
    3.0456   54.9111  125.0043 C   0  0  0  0  0  0  0  0  0  0  0  0
    2.3774   54.8000  126.3634 C   0  0  0  0  0  0  0  0  0  0  0  0
    1.7206   53.4940  126.5572 C   0  0  0  0  0  0  0  0  0  0  0  0
    2.1079   52.3026  125.8818 N   0  0  0  0  0  0  0  0  0  0  0  0
    0.7521   53.4330  127.3783 O   0  0  0  0  0  0  0  0  0  0  0  0
    1.3658   51.5970  125.5908 H   0  0  0  0  0  0  0  0  0  0  0  0
    3.0741   52.0384  125.6345 H   0  0  0  0  0  0  0  0  0  0  0  0
    8.4162   53.4752  124.3381 C   0  0  0  0  0  0  0  0  0  0  0  0
    7.5862   53.6178  123.0968 C   0  0  0  0  0  0  0  0  0  0  0  0
    8.0233   54.7255  122.2169 C   0  0  0  0  0  0  0  0  0  0  0  0
    9.0734   55.5749  122.5627 N   0  0  0  0  0  0  0  0  0  0  0  0
    7.4148   54.9101  121.1040 O   0  0  0  0  0  0  0  0  0  0  0  0
   10.0520   55.3432  122.3625 H   0  0  0  0  0  0  0  0  0  0  0  0
    8.8438   56.4894  123.0523 H   0  0  0  0  0  0  0  0  0  0  0  0
    7.4065   52.2859  130.2320 C   0  0  0  0  0  0  0  0  0  0  0  0
    6.9212   50.2822  131.5125 C   0  0  0  0  0  0  0  0  0  0  0  0
    8.0288   51.0873  130.8613 C   0  0  0  0  0  0  0  0  0  0  0  0
    9.0998   51.3036  131.8501 C   0  0  0  0  0  0  0  0  0  0  0  0
 73 74  1  0  0  0
 74 75  1  0  0  0
 74 72  1  0  0  0
 72 42  1  0  0  0
 42  1  1  0  0  0
  1  2  1  0  0  0
  2  3  2  0  0  0
  2  5  1  0  0  0
  5 35  1  0  0  0
 35 36  1  0  0  0
 36 37  1  0  0  0
 37 38  1  0  0  0
 37 39  2  0  0  0
  5  6  1  0  0  0
  6  7  1  0  0  0
  7  8  2  0  0  0
  7 10  1  0  0  0
 10 28  1  0  0  0
 28 29  1  0  0  0
 29 30  1  0  0  0
 30 31  1  0  0  0
 30 32  2  0  0  0
 10 11  1  0  0  0
 11 12  1  0  0  0
 12 13  2  0  0  0
 12 15  1  0  0  0
 15 21  1  0  0  0
 21 22  1  0  0  0
 22 23  1  0  0  0
 23 24  1  0  0  0
 23 25  2  0  0  0
 15 16  1  0  0  0
 16 17  1  0  0  0
 17 18  1  0  0  0
 17 19  2  0  0  0
 42 43  1  0  0  0
 43 44  2  0  0  0
 43 45  1  0  0  0
 45 47  1  0  0  0
 47 65  1  0  0  0
 65 66  1  0  0  0
 66 67  1  0  0  0
 67 68  1  0  0  0
 67 69  2  0  0  0
 47 48  1  0  0  0
 48 49  2  0  0  0
 48 50  1  0  0  0
 50 52  1  0  0  0
 52 58  1  0  0  0
 58 59  1  0  0  0
 59 60  1  0  0  0
 60 61  1  0  0  0
 60 62  2  0  0  0
 52 53  1  0  0  0
 53 54  1  0  0  0
 53 55  2  0  0  0
  1  4  1  0  0  0
 38 40  1  0  0  0
 38 41  1  0  0  0
  6  9  1  0  0  0
 31 33  1  0  0  0
 31 34  1  0  0  0
 11 14  1  0  0  0
 24 26  1  0  0  0
 24 27  1  0  0  0
 16 20  1  0  0  0
 45 46  1  0  0  0
 68 70  1  0  0  0
 68 71  1  0  0  0
 50 51  1  0  0  0
 61 63  1  0  0  0
 61 64  1  0  0  0
 54 56  1  0  0  0
 54 57  1  0  0  0
M  END
> <minimizedAffinity>
0.93371

> <CNNscore>
0.4326139092

> <CNNaffinity>
7.8849859238

> <CNN_VS>
3.4111545086

> <CNNaffinity_variance>
0.3613074422

$$$$
[H]N([H])C(=O)C([H])([H])C([H])([H])[C@@]([H])(C(=O)N([H])[H])N([H])C(=O)[C@@]([H])(N([H])C(=O)[C@@]([H])(N([H])C(=O)[C@@]([H])(N([H])C(=O)[C@@]([H])(N([H])C(=O)[C@@]([H])(N([H])C(=O)C([H])([H])[H])C([H])([H])C([H])([H])C(=O)N([H])[H])C([H])([H])C([H])([H])C(=O)N([H])[H])C([H])([H])C([H])([H])C(=O)N([H])[H])C([H])([H])C([H])(C([H])([H])[H])C([H])([H])[H])C([H])([H])C([H])([H])C(=O)N([H])[H]


 75 74  0  0  0  0  0  0  0  0999 V2000
    8.7037   48.3686  129.5620 N   0  0  0  0  0  0  0  0  0  0  0  0
    7.8396   49.0860  128.7412 C   0  0  0  0  0  0  0  0  0  0  0  0
    7.3965   48.5009  127.6909 O   0  0  0  0  0  0  0  0  0  0  0  0
    8.9604   48.8969  130.4762 H   0  0  0  0  0  0  0  0  0  0  0  0
    7.3846   50.4584  128.9673 C   0  0  0  0  0  0  0  0  0  0  0  0
    7.4247   51.3364  127.8485 N   0  0  0  0  0  0  0  0  0  0  0  0
    7.2232   52.7270  127.8643 C   0  0  0  0  0  0  0  0  0  0  0  0
    7.0287   53.4040  128.8927 O   0  0  0  0  0  0  0  0  0  0  0  0
    7.6238   50.8794  126.9127 H   0  0  0  0  0  0  0  0  0  0  0  0
    7.2134   53.5005  126.5423 C   0  0  0  0  0  0  0  0  0  0  0  0
    5.9374   54.1059  126.3679 N   0  0  0  0  0  0  0  0  0  0  0  0
    5.5703   54.4856  125.0341 C   0  0  0  0  0  0  0  0  0  0  0  0
    6.3717   54.2659  124.1007 O   0  0  0  0  0  0  0  0  0  0  0  0
    5.2639   54.2869  127.0898 H   0  0  0  0  0  0  0  0  0  0  0  0
    4.2508   55.1353  124.7154 C   0  0  0  0  0  0  0  0  0  0  0  0
    3.9844   56.2680  125.5244 N   0  0  0  0  0  0  0  0  0  0  0  0
    3.0257   56.3927  126.5469 C   0  0  0  0  0  0  0  0  0  0  0  0
    2.8484   57.6613  127.3193 C   0  0  0  0  0  0  0  0  0  0  0  0
    2.2899   55.4232  126.8311 O   0  0  0  0  0  0  0  0  0  0  0  0
    4.5908   57.1294  125.3373 H   0  0  0  0  0  0  0  0  0  0  0  0
    4.1087   55.2689  123.2536 C   0  0  0  0  0  0  0  0  0  0  0  0
    3.4033   54.1653  122.5448 C   0  0  0  0  0  0  0  0  0  0  0  0
    4.2229   53.2988  121.7079 C   0  0  0  0  0  0  0  0  0  0  0  0
    5.5762   53.7099  121.4860 N   0  0  0  0  0  0  0  0  0  0  0  0
    3.8650   52.2469  121.1736 O   0  0  0  0  0  0  0  0  0  0  0  0
    6.1626   54.0106  122.2785 H   0  0  0  0  0  0  0  0  0  0  0  0
    5.9369   53.7027  120.5243 H   0  0  0  0  0  0  0  0  0  0  0  0
    8.4456   54.2638  126.3919 C   0  0  0  0  0  0  0  0  0  0  0  0
    9.0020   54.3683  125.0199 C   0  0  0  0  0  0  0  0  0  0  0  0
    8.8810   55.6588  124.3373 C   0  0  0  0  0  0  0  0  0  0  0  0
    8.9532   55.8618  122.9328 N   0  0  0  0  0  0  0  0  0  0  0  0
    8.6842   56.7401  125.0052 O   0  0  0  0  0  0  0  0  0  0  0  0
    9.8763   55.7244  122.4882 H   0  0  0  0  0  0  0  0  0  0  0  0
    8.1452   56.1343  122.3532 H   0  0  0  0  0  0  0  0  0  0  0  0
    6.2229   50.6391  129.8757 C   0  0  0  0  0  0  0  0  0  0  0  0
    6.5099   50.7202  131.3361 C   0  0  0  0  0  0  0  0  0  0  0  0
    7.7739   50.0392  131.6958 C   0  0  0  0  0  0  0  0  0  0  0  0
    9.0361   50.7619  131.5988 N   0  0  0  0  0  0  0  0  0  0  0  0
    7.7837   48.8526  132.0808 O   0  0  0  0  0  0  0  0  0  0  0  0
    9.4546   51.0695  132.4801 H   0  0  0  0  0  0  0  0  0  0  0  0
    9.4353   50.9231  130.6702 H   0  0  0  0  0  0  0  0  0  0  0  0
    9.2796   47.0954  129.4570 C   0  0  0  0  0  0  0  0  0  0  0  0
    9.7125   46.4964  130.7320 C   0  0  0  0  0  0  0  0  0  0  0  0
    9.0576   45.6959  131.4274 O   0  0  0  0  0  0  0  0  0  0  0  0
   11.0143   46.8086  131.2607 N   0  0  0  0  0  0  0  0  0  0  0  0
   11.5846   47.4873  130.7145 H   0  0  0  0  0  0  0  0  0  0  0  0
   11.6081   46.2845  132.4417 C   0  0  0  0  0  0  0  0  0  0  0  0
   11.6674   44.8279  132.4305 C   0  0  0  0  0  0  0  0  0  0  0  0
   12.5404   44.1683  133.0302 O   0  0  0  0  0  0  0  0  0  0  0  0
   10.6872   44.0672  131.6965 N   0  0  0  0  0  0  0  0  0  0  0  0
    9.9273   44.5075  131.1492 H   0  0  0  0  0  0  0  0  0  0  0  0
   10.7627   42.5969  131.7316 C   0  0  0  0  0  0  0  0  0  0  0  0
   10.0657   42.0888  130.4900 C   0  0  0  0  0  0  0  0  0  0  0  0
    9.2421   42.9708  129.7318 N   0  0  0  0  0  0  0  0  0  0  0  0
   10.1760   40.9081  130.0853 O   0  0  0  0  0  0  0  0  0  0  0  0
    8.9186   43.8737  130.1565 H   0  0  0  0  0  0  0  0  0  0  0  0
    8.9583   42.7024  128.7366 H   0  0  0  0  0  0  0  0  0  0  0  0
    9.9922   42.1518  132.9161 C   0  0  0  0  0  0  0  0  0  0  0  0
    8.6933   42.9355  132.9847 C   0  0  0  0  0  0  0  0  0  0  0  0
    7.5142   42.0838  132.7420 C   0  0  0  0  0  0  0  0  0  0  0  0
    6.7879   41.4214  133.7713 N   0  0  0  0  0  0  0  0  0  0  0  0
    7.1262   41.9361  131.5405 O   0  0  0  0  0  0  0  0  0  0  0  0
    6.3748   40.4576  133.5879 H   0  0  0  0  0  0  0  0  0  0  0  0
    6.6107   41.7933  134.7172 H   0  0  0  0  0  0  0  0  0  0  0  0
   10.9756   46.8678  133.6836 C   0  0  0  0  0  0  0  0  0  0  0  0
   10.0790   45.9129  134.4145 C   0  0  0  0  0  0  0  0  0  0  0  0
    8.6951   46.4118  134.5830 C   0  0  0  0  0  0  0  0  0  0  0  0
    8.4089   47.7702  134.7124 N   0  0  0  0  0  0  0  0  0  0  0  0
    7.7313   45.5675  134.6134 O   0  0  0  0  0  0  0  0  0  0  0  0
    8.2793   48.3810  133.8991 H   0  0  0  0  0  0  0  0  0  0  0  0
    8.3270   48.1787  135.6897 H   0  0  0  0  0  0  0  0  0  0  0  0
   10.1887   46.8658  128.3160 C   0  0  0  0  0  0  0  0  0  0  0  0
   11.8570   45.1217  128.5714 C   0  0  0  0  0  0  0  0  0  0  0  0
   10.4896   45.4414  127.9992 C   0  0  0  0  0  0  0  0  0  0  0  0
   10.4603   45.0269  126.5854 C   0  0  0  0  0  0  0  0  0  0  0  0
 73 74  1  0  0  0
 74 75  1  0  0  0
 74 72  1  0  0  0
 72 42  1  0  0  0
 42  1  1  0  0  0
  1  2  1  0  0  0
  2  3  2  0  0  0
  2  5  1  0  0  0
  5 35  1  0  0  0
 35 36  1  0  0  0
 36 37  1  0  0  0
 37 38  1  0  0  0
 37 39  2  0  0  0
  5  6  1  0  0  0
  6  7  1  0  0  0
  7  8  2  0  0  0
  7 10  1  0  0  0
 10 28  1  0  0  0
 28 29  1  0  0  0
 29 30  1  0  0  0
 30 31  1  0  0  0
 30 32  2  0  0  0
 10 11  1  0  0  0
 11 12  1  0  0  0
 12 13  2  0  0  0
 12 15  1  0  0  0
 15 21  1  0  0  0
 21 22  1  0  0  0
 22 23  1  0  0  0
 23 24  1  0  0  0
 23 25  2  0  0  0
 15 16  1  0  0  0
 16 17  1  0  0  0
 17 18  1  0  0  0
 17 19  2  0  0  0
 42 43  1  0  0  0
 43 44  2  0  0  0
 43 45  1  0  0  0
 45 47  1  0  0  0
 47 65  1  0  0  0
 65 66  1  0  0  0
 66 67  1  0  0  0
 67 68  1  0  0  0
 67 69  2  0  0  0
 47 48  1  0  0  0
 48 49  2  0  0  0
 48 50  1  0  0  0
 50 52  1  0  0  0
 52 58  1  0  0  0
 58 59  1  0  0  0
 59 60  1  0  0  0
 60 61  1  0  0  0
 60 62  2  0  0  0
 52 53  1  0  0  0
 53 54  1  0  0  0
 53 55  2  0  0  0
  1  4  1  0  0  0
 38 40  1  0  0  0
 38 41  1  0  0  0
  6  9  1  0  0  0
 31 33  1  0  0  0
 31 34  1  0  0  0
 11 14  1  0  0  0
 24 26  1  0  0  0
 24 27  1  0  0  0
 16 20  1  0  0  0
 45 46  1  0  0  0
 68 70  1  0  0  0
 68 71  1  0  0  0
 50 51  1  0  0  0
 61 63  1  0  0  0
 61 64  1  0  0  0
 54 56  1  0  0  0
 54 57  1  0  0  0
M  END
> <minimizedAffinity>
2.80562

> <CNNscore>
0.4244847298

> <CNNaffinity>
7.7713112831

> <CNN_VS>
3.2988028526

> <CNNaffinity_variance>
0.2266524732

$$$$
[H]N([H])C(=O)C([H])([H])C([H])([H])[C@@]([H])(C(=O)N([H])[H])N([H])C(=O)[C@@]([H])(N([H])C(=O)[C@@]([H])(N([H])C(=O)[C@@]([H])(N([H])C(=O)[C@@]([H])(N([H])C(=O)[C@@]([H])(N([H])C(=O)C([H])([H])[H])C([H])([H])C([H])([H])C(=O)N([H])[H])C([H])([H])C([H])([H])C(=O)N([H])[H])C([H])([H])C([H])([H])C(=O)N([H])[H])C([H])([H])C([H])(C([H])([H])[H])C([H])([H])[H])C([H])([H])C([H])([H])C(=O)N([H])[H]


 75 74  0  0  0  0  0  0  0  0999 V2000
    7.2985   47.3140  129.2823 N   0  0  0  0  0  0  0  0  0  0  0  0
    8.6551   47.3050  128.9746 C   0  0  0  0  0  0  0  0  0  0  0  0
    9.0469   48.0363  127.9982 O   0  0  0  0  0  0  0  0  0  0  0  0
    7.0603   46.7445  130.1764 H   0  0  0  0  0  0  0  0  0  0  0  0
    9.6861   46.5319  129.6683 C   0  0  0  0  0  0  0  0  0  0  0  0
    9.3873   46.1166  130.9958 N   0  0  0  0  0  0  0  0  0  0  0  0
    8.5848   46.7959  131.9281 C   0  0  0  0  0  0  0  0  0  0  0  0
    7.9684   47.8542  131.6956 O   0  0  0  0  0  0  0  0  0  0  0  0
    9.8260   45.2006  131.3004 H   0  0  0  0  0  0  0  0  0  0  0  0
    8.4483   46.2405  133.3489 C   0  0  0  0  0  0  0  0  0  0  0  0
    9.3613   45.1619  133.5157 N   0  0  0  0  0  0  0  0  0  0  0  0
    9.0947   43.9594  132.7801 C   0  0  0  0  0  0  0  0  0  0  0  0
    8.0930   43.9165  132.0342 O   0  0  0  0  0  0  0  0  0  0  0  0
   10.1810   45.1637  134.0950 H   0  0  0  0  0  0  0  0  0  0  0  0
    9.9815   42.7468  132.8692 C   0  0  0  0  0  0  0  0  0  0  0  0
   11.1418   42.9687  133.6523 N   0  0  0  0  0  0  0  0  0  0  0  0
   12.1730   43.8983  133.4236 C   0  0  0  0  0  0  0  0  0  0  0  0
   13.3515   44.0183  134.3370 C   0  0  0  0  0  0  0  0  0  0  0  0
   12.1195   44.6549  132.4302 O   0  0  0  0  0  0  0  0  0  0  0  0
   11.2403   42.3585  134.5255 H   0  0  0  0  0  0  0  0  0  0  0  0
    9.1596   41.5564  133.1558 C   0  0  0  0  0  0  0  0  0  0  0  0
    8.0549   41.7254  134.1402 C   0  0  0  0  0  0  0  0  0  0  0  0
    6.7436   41.2319  133.7400 C   0  0  0  0  0  0  0  0  0  0  0  0
    5.8908   40.7492  134.7837 N   0  0  0  0  0  0  0  0  0  0  0  0
    6.2973   41.1905  132.5914 O   0  0  0  0  0  0  0  0  0  0  0  0
    5.7580   41.3042  135.6420 H   0  0  0  0  0  0  0  0  0  0  0  0
    5.4277   39.8416  134.6548 H   0  0  0  0  0  0  0  0  0  0  0  0
    8.3713   47.3295  134.3143 C   0  0  0  0  0  0  0  0  0  0  0  0
    9.6598   47.8993  134.7809 C   0  0  0  0  0  0  0  0  0  0  0  0
   10.8454   47.6561  133.9554 C   0  0  0  0  0  0  0  0  0  0  0  0
   12.0047   46.9424  134.3625 N   0  0  0  0  0  0  0  0  0  0  0  0
   10.9058   48.0915  132.7468 O   0  0  0  0  0  0  0  0  0  0  0  0
   12.6045   47.3931  135.0737 H   0  0  0  0  0  0  0  0  0  0  0  0
   12.2670   46.0184  133.9877 H   0  0  0  0  0  0  0  0  0  0  0  0
   10.4533   45.5543  128.8540 C   0  0  0  0  0  0  0  0  0  0  0  0
   10.6598   44.1988  129.4381 C   0  0  0  0  0  0  0  0  0  0  0  0
    9.7022   43.2067  128.9001 C   0  0  0  0  0  0  0  0  0  0  0  0
    9.3096   43.2692  127.4977 N   0  0  0  0  0  0  0  0  0  0  0  0
    9.2189   42.3136  129.6249 O   0  0  0  0  0  0  0  0  0  0  0  0
    9.7206   42.5674  126.8772 H   0  0  0  0  0  0  0  0  0  0  0  0
    8.6532   43.9990  127.2073 H   0  0  0  0  0  0  0  0  0  0  0  0
    6.1913   47.9340  128.6879 C   0  0  0  0  0  0  0  0  0  0  0  0
    6.0073   49.3544  129.0349 C   0  0  0  0  0  0  0  0  0  0  0  0
    5.1476   49.8157  129.8105 O   0  0  0  0  0  0  0  0  0  0  0  0
    6.8891   50.3450  128.4756 N   0  0  0  0  0  0  0  0  0  0  0  0
    7.6107   49.9985  127.8098 H   0  0  0  0  0  0  0  0  0  0  0  0
    6.8868   51.7420  128.7404 C   0  0  0  0  0  0  0  0  0  0  0  0
    7.2773   52.5259  127.5749 C   0  0  0  0  0  0  0  0  0  0  0  0
    7.8381   52.0390  126.5723 O   0  0  0  0  0  0  0  0  0  0  0  0
    7.0252   53.9448  127.5369 N   0  0  0  0  0  0  0  0  0  0  0  0
    6.5809   54.4587  128.3175 H   0  0  0  0  0  0  0  0  0  0  0  0
    7.4082   54.6985  126.3311 C   0  0  0  0  0  0  0  0  0  0  0  0
    7.4537   56.1590  126.7188 C   0  0  0  0  0  0  0  0  0  0  0  0
    6.2431   56.8470  127.0222 N   0  0  0  0  0  0  0  0  0  0  0  0
    8.5224   56.8096  126.7877 O   0  0  0  0  0  0  0  0  0  0  0  0
    5.3233   56.4302  126.7383 H   0  0  0  0  0  0  0  0  0  0  0  0
    6.2833   57.7846  127.5342 H   0  0  0  0  0  0  0  0  0  0  0  0
    6.3230   54.5109  125.3401 C   0  0  0  0  0  0  0  0  0  0  0  0
    6.7818   55.0482  123.9960 C   0  0  0  0  0  0  0  0  0  0  0  0
    6.1493   54.3411  122.8670 C   0  0  0  0  0  0  0  0  0  0  0  0
    6.8627   53.8522  121.7366 N   0  0  0  0  0  0  0  0  0  0  0  0
    4.8921   54.1586  122.9107 O   0  0  0  0  0  0  0  0  0  0  0  0
    6.4090   53.8821  120.7741 H   0  0  0  0  0  0  0  0  0  0  0  0
    7.8141   53.4534  121.7523 H   0  0  0  0  0  0  0  0  0  0  0  0
    7.6654   52.0679  129.9935 C   0  0  0  0  0  0  0  0  0  0  0  0
    7.7119   50.9466  130.9887 C   0  0  0  0  0  0  0  0  0  0  0  0
    9.0856   50.4969  131.3099 C   0  0  0  0  0  0  0  0  0  0  0  0
    9.8817   49.8290  130.3804 N   0  0  0  0  0  0  0  0  0  0  0  0
    9.5555   50.7270  132.4799 O   0  0  0  0  0  0  0  0  0  0  0  0
   10.4582   50.3290  129.6955 H   0  0  0  0  0  0  0  0  0  0  0  0
    9.8833   48.7666  130.3867 H   0  0  0  0  0  0  0  0  0  0  0  0
    4.9471   47.1426  128.6060 C   0  0  0  0  0  0  0  0  0  0  0  0
    5.2573   46.2081  130.8242 C   0  0  0  0  0  0  0  0  0  0  0  0
    4.2581   46.8763  129.8999 C   0  0  0  0  0  0  0  0  0  0  0  0
    3.0257   46.0688  129.8731 C   0  0  0  0  0  0  0  0  0  0  0  0
 73 74  1  0  0  0
 74 75  1  0  0  0
 74 72  1  0  0  0
 72 42  1  0  0  0
 42  1  1  0  0  0
  1  2  1  0  0  0
  2  3  2  0  0  0
  2  5  1  0  0  0
  5 35  1  0  0  0
 35 36  1  0  0  0
 36 37  1  0  0  0
 37 38  1  0  0  0
 37 39  2  0  0  0
  5  6  1  0  0  0
  6  7  1  0  0  0
  7  8  2  0  0  0
  7 10  1  0  0  0
 10 28  1  0  0  0
 28 29  1  0  0  0
 29 30  1  0  0  0
 30 31  1  0  0  0
 30 32  2  0  0  0
 10 11  1  0  0  0
 11 12  1  0  0  0
 12 13  2  0  0  0
 12 15  1  0  0  0
 15 21  1  0  0  0
 21 22  1  0  0  0
 22 23  1  0  0  0
 23 24  1  0  0  0
 23 25  2  0  0  0
 15 16  1  0  0  0
 16 17  1  0  0  0
 17 18  1  0  0  0
 17 19  2  0  0  0
 42 43  1  0  0  0
 43 44  2  0  0  0
 43 45  1  0  0  0
 45 47  1  0  0  0
 47 65  1  0  0  0
 65 66  1  0  0  0
 66 67  1  0  0  0
 67 68  1  0  0  0
 67 69  2  0  0  0
 47 48  1  0  0  0
 48 49  2  0  0  0
 48 50  1  0  0  0
 50 52  1  0  0  0
 52 58  1  0  0  0
 58 59  1  0  0  0
 59 60  1  0  0  0
 60 61  1  0  0  0
 60 62  2  0  0  0
 52 53  1  0  0  0
 53 54  1  0  0  0
 53 55  2  0  0  0
  1  4  1  0  0  0
 38 40  1  0  0  0
 38 41  1  0  0  0
  6  9  1  0  0  0
 31 33  1  0  0  0
 31 34  1  0  0  0
 11 14  1  0  0  0
 24 26  1  0  0  0
 24 27  1  0  0  0
 16 20  1  0  0  0
 45 46  1  0  0  0
 68 70  1  0  0  0
 68 71  1  0  0  0
 50 51  1  0  0  0
 61 63  1  0  0  0
 61 64  1  0  0  0
 54 56  1  0  0  0
 54 57  1  0  0  0
M  END
> <minimizedAffinity>
7.58724

> <CNNscore>
0.3834812045

> <CNNaffinity>
7.6946668625

> <CNN_VS>
2.9507601261

> <CNNaffinity_variance>
0.4956366122

$$$$
[H]N([H])C(=O)C([H])([H])C([H])([H])[C@@]([H])(C(=O)N([H])[H])N([H])C(=O)[C@@]([H])(N([H])C(=O)[C@@]([H])(N([H])C(=O)[C@@]([H])(N([H])C(=O)[C@@]([H])(N([H])C(=O)[C@@]([H])(N([H])C(=O)C([H])([H])[H])C([H])([H])C([H])([H])C(=O)N([H])[H])C([H])([H])C([H])([H])C(=O)N([H])[H])C([H])([H])C([H])([H])C(=O)N([H])[H])C([H])([H])C([H])(C([H])([H])[H])C([H])([H])[H])C([H])([H])C([H])([H])C(=O)N([H])[H]


 75 74  0  0  0  0  0  0  0  0999 V2000
    8.3385   49.0521  129.1310 N   0  0  0  0  0  0  0  0  0  0  0  0
    7.8874   50.2856  129.5893 C   0  0  0  0  0  0  0  0  0  0  0  0
    8.4995   50.8081  130.5863 O   0  0  0  0  0  0  0  0  0  0  0  0
    7.8310   48.7207  128.2292 H   0  0  0  0  0  0  0  0  0  0  0  0
    6.7694   51.0495  129.0341 C   0  0  0  0  0  0  0  0  0  0  0  0
    7.0216   51.7673  127.8319 N   0  0  0  0  0  0  0  0  0  0  0  0
    7.0871   53.1633  127.6849 C   0  0  0  0  0  0  0  0  0  0  0  0
    6.9823   53.9808  128.6201 O   0  0  0  0  0  0  0  0  0  0  0  0
    7.1689   51.1746  126.9651 H   0  0  0  0  0  0  0  0  0  0  0  0
    7.2790   53.7644  126.2893 C   0  0  0  0  0  0  0  0  0  0  0  0
    6.0253   53.7858  125.6164 N   0  0  0  0  0  0  0  0  0  0  0  0
    5.2606   54.9969  125.6960 C   0  0  0  0  0  0  0  0  0  0  0  0
    5.7249   55.9641  126.3368 O   0  0  0  0  0  0  0  0  0  0  0  0
    5.6262   53.0347  125.0833 H   0  0  0  0  0  0  0  0  0  0  0  0
    3.9194   55.1485  125.0304 C   0  0  0  0  0  0  0  0  0  0  0  0
    3.8224   54.4259  123.8150 N   0  0  0  0  0  0  0  0  0  0  0  0
    4.8089   54.2657  122.8246 C   0  0  0  0  0  0  0  0  0  0  0  0
    4.5628   53.4758  121.5785 C   0  0  0  0  0  0  0  0  0  0  0  0
    5.9317   54.7941  122.9739 O   0  0  0  0  0  0  0  0  0  0  0  0
    2.8869   53.9395  123.6336 H   0  0  0  0  0  0  0  0  0  0  0  0
    2.8510   54.9804  126.0330 C   0  0  0  0  0  0  0  0  0  0  0  0
    2.1267   53.6792  126.0294 C   0  0  0  0  0  0  0  0  0  0  0  0
    1.0826   53.5112  127.0318 C   0  0  0  0  0  0  0  0  0  0  0  0
    0.5995   52.1800  127.2420 N   0  0  0  0  0  0  0  0  0  0  0  0
    0.5760   54.4027  127.7163 O   0  0  0  0  0  0  0  0  0  0  0  0
    1.2637   51.4009  127.3611 H   0  0  0  0  0  0  0  0  0  0  0  0
   -0.4159   52.0270  127.2628 H   0  0  0  0  0  0  0  0  0  0  0  0
    8.1265   54.9478  126.3586 C   0  0  0  0  0  0  0  0  0  0  0  0
    9.0970   55.1387  125.2520 C   0  0  0  0  0  0  0  0  0  0  0  0
    8.6300   55.8460  124.0572 C   0  0  0  0  0  0  0  0  0  0  0  0
    8.8693   55.4486  122.7141 N   0  0  0  0  0  0  0  0  0  0  0  0
    7.9325   56.9215  124.1602 O   0  0  0  0  0  0  0  0  0  0  0  0
    9.8408   55.5285  122.3697 H   0  0  0  0  0  0  0  0  0  0  0  0
    8.1341   55.0938  122.0843 H   0  0  0  0  0  0  0  0  0  0  0  0
    5.4205   50.4351  129.1364 C   0  0  0  0  0  0  0  0  0  0  0  0
    5.3071   49.1747  129.9238 C   0  0  0  0  0  0  0  0  0  0  0  0
    5.3544   47.9718  129.0628 C   0  0  0  0  0  0  0  0  0  0  0  0
    4.8362   46.7048  129.5636 N   0  0  0  0  0  0  0  0  0  0  0  0
    5.8325   48.0177  127.9113 O   0  0  0  0  0  0  0  0  0  0  0  0
    3.9307   46.4044  129.1944 H   0  0  0  0  0  0  0  0  0  0  0  0
    5.3937   46.1864  130.2478 H   0  0  0  0  0  0  0  0  0  0  0  0
    9.3327   48.1739  129.5827 C   0  0  0  0  0  0  0  0  0  0  0  0
    8.9790   46.7443  129.5258 C   0  0  0  0  0  0  0  0  0  0  0  0
    7.9019   46.2388  129.8969 O   0  0  0  0  0  0  0  0  0  0  0  0
    9.9157   45.7994  128.9770 N   0  0  0  0  0  0  0  0  0  0  0  0
   10.8339   46.1832  128.6709 H   0  0  0  0  0  0  0  0  0  0  0  0
    9.7197   44.4023  128.8000 C   0  0  0  0  0  0  0  0  0  0  0  0
    9.0461   43.7903  129.9390 C   0  0  0  0  0  0  0  0  0  0  0  0
    8.1155   42.9665  129.8292 O   0  0  0  0  0  0  0  0  0  0  0  0
    9.4409   44.1291  131.2835 N   0  0  0  0  0  0  0  0  0  0  0  0
   10.1891   44.8119  131.4954 H   0  0  0  0  0  0  0  0  0  0  0  0
    8.7565   43.4695  132.4084 C   0  0  0  0  0  0  0  0  0  0  0  0
    8.2366   44.5640  133.3124 C   0  0  0  0  0  0  0  0  0  0  0  0
    7.3956   45.5821  132.7767 N   0  0  0  0  0  0  0  0  0  0  0  0
    8.5133   44.6242  134.5330 O   0  0  0  0  0  0  0  0  0  0  0  0
    7.3437   45.7204  131.7382 H   0  0  0  0  0  0  0  0  0  0  0  0
    6.8267   46.1990  133.4391 H   0  0  0  0  0  0  0  0  0  0  0  0
    9.7832   42.6994  133.1486 C   0  0  0  0  0  0  0  0  0  0  0  0
   11.1604   43.1968  132.7463 C   0  0  0  0  0  0  0  0  0  0  0  0
   11.8753   43.8299  133.8701 C   0  0  0  0  0  0  0  0  0  0  0  0
   12.9774   44.7164  133.7113 N   0  0  0  0  0  0  0  0  0  0  0  0
   11.4796   43.5662  135.0489 O   0  0  0  0  0  0  0  0  0  0  0  0
   13.7731   44.6995  134.4183 H   0  0  0  0  0  0  0  0  0  0  0  0
   13.0910   45.4045  132.9511 H   0  0  0  0  0  0  0  0  0  0  0  0
   11.0011   43.7115  128.3957 C   0  0  0  0  0  0  0  0  0  0  0  0
   12.2243   44.5676  128.5401 C   0  0  0  0  0  0  0  0  0  0  0  0
   12.7629   44.6025  129.9188 C   0  0  0  0  0  0  0  0  0  0  0  0
   13.8492   43.8204  130.3088 N   0  0  0  0  0  0  0  0  0  0  0  0
   12.2107   45.3739  130.7806 O   0  0  0  0  0  0  0  0  0  0  0  0
   14.8187   44.1260  130.1742 H   0  0  0  0  0  0  0  0  0  0  0  0
   13.6576   42.8763  130.7570 H   0  0  0  0  0  0  0  0  0  0  0  0
   10.0920   48.5844  130.7810 C   0  0  0  0  0  0  0  0  0  0  0  0
    9.1382   48.9620  132.9805 C   0  0  0  0  0  0  0  0  0  0  0  0
    9.7147   47.9089  132.0543 C   0  0  0  0  0  0  0  0  0  0  0  0
   10.7607   47.1647  132.7779 C   0  0  0  0  0  0  0  0  0  0  0  0
 73 74  1  0  0  0
 74 75  1  0  0  0
 74 72  1  0  0  0
 72 42  1  0  0  0
 42  1  1  0  0  0
  1  2  1  0  0  0
  2  3  2  0  0  0
  2  5  1  0  0  0
  5 35  1  0  0  0
 35 36  1  0  0  0
 36 37  1  0  0  0
 37 38  1  0  0  0
 37 39  2  0  0  0
  5  6  1  0  0  0
  6  7  1  0  0  0
  7  8  2  0  0  0
  7 10  1  0  0  0
 10 28  1  0  0  0
 28 29  1  0  0  0
 29 30  1  0  0  0
 30 31  1  0  0  0
 30 32  2  0  0  0
 10 11  1  0  0  0
 11 12  1  0  0  0
 12 13  2  0  0  0
 12 15  1  0  0  0
 15 21  1  0  0  0
 21 22  1  0  0  0
 22 23  1  0  0  0
 23 24  1  0  0  0
 23 25  2  0  0  0
 15 16  1  0  0  0
 16 17  1  0  0  0
 17 18  1  0  0  0
 17 19  2  0  0  0
 42 43  1  0  0  0
 43 44  2  0  0  0
 43 45  1  0  0  0
 45 47  1  0  0  0
 47 65  1  0  0  0
 65 66  1  0  0  0
 66 67  1  0  0  0
 67 68  1  0  0  0
 67 69  2  0  0  0
 47 48  1  0  0  0
 48 49  2  0  0  0
 48 50  1  0  0  0
 50 52  1  0  0  0
 52 58  1  0  0  0
 58 59  1  0  0  0
 59 60  1  0  0  0
 60 61  1  0  0  0
 60 62  2  0  0  0
 52 53  1  0  0  0
 53 54  1  0  0  0
 53 55  2  0  0  0
  1  4  1  0  0  0
 38 40  1  0  0  0
 38 41  1  0  0  0
  6  9  1  0  0  0
 31 33  1  0  0  0
 31 34  1  0  0  0
 11 14  1  0  0  0
 24 26  1  0  0  0
 24 27  1  0  0  0
 16 20  1  0  0  0
 45 46  1  0  0  0
 68 70  1  0  0  0
 68 71  1  0  0  0
 50 51  1  0  0  0
 61 63  1  0  0  0
 61 64  1  0  0  0
 54 56  1  0  0  0
 54 57  1  0  0  0
M  END
> <minimizedAffinity>
-4.10441

> <CNNscore>
0.3767739236

> <CNNaffinity>
8.1124525070

> <CNN_VS>
3.0565605164

> <CNNaffinity_variance>
0.4462840557

$$$$
[H]N([H])C(=O)C([H])([H])C([H])([H])[C@@]([H])(C(=O)N([H])[H])N([H])C(=O)[C@@]([H])(N([H])C(=O)[C@@]([H])(N([H])C(=O)[C@@]([H])(N([H])C(=O)[C@@]([H])(N([H])C(=O)[C@@]([H])(N([H])C(=O)C([H])([H])[H])C([H])([H])C([H])([H])C(=O)N([H])[H])C([H])([H])C([H])([H])C(=O)N([H])[H])C([H])([H])C([H])([H])C(=O)N([H])[H])C([H])([H])C([H])(C([H])([H])[H])C([H])([H])[H])C([H])([H])C([H])([H])C(=O)N([H])[H]


 75 74  0  0  0  0  0  0  0  0999 V2000
    8.4826   47.1343  128.1224 N   0  0  0  0  0  0  0  0  0  0  0  0
    9.3047   46.8808  129.2157 C   0  0  0  0  0  0  0  0  0  0  0  0
    9.0133   47.4558  130.3230 O   0  0  0  0  0  0  0  0  0  0  0  0
    8.7388   46.5403  127.2495 H   0  0  0  0  0  0  0  0  0  0  0  0
   10.4814   46.0108  129.2195 C   0  0  0  0  0  0  0  0  0  0  0  0
   10.8644   45.4610  130.4746 N   0  0  0  0  0  0  0  0  0  0  0  0
   12.0168   44.7032  130.7433 C   0  0  0  0  0  0  0  0  0  0  0  0
   12.9080   44.4476  129.9101 O   0  0  0  0  0  0  0  0  0  0  0  0
   10.1997   45.6467  131.2796 H   0  0  0  0  0  0  0  0  0  0  0  0
   12.2198   44.1133  132.1422 C   0  0  0  0  0  0  0  0  0  0  0  0
   11.3813   44.8020  133.0628 N   0  0  0  0  0  0  0  0  0  0  0  0
   12.0235   45.6546  134.0213 C   0  0  0  0  0  0  0  0  0  0  0  0
   13.2689   45.7567  134.0008 O   0  0  0  0  0  0  0  0  0  0  0  0
   10.3794   44.7542  133.1017 H   0  0  0  0  0  0  0  0  0  0  0  0
   11.2514   46.4366  135.0493 C   0  0  0  0  0  0  0  0  0  0  0  0
   11.0833   47.7983  134.6942 N   0  0  0  0  0  0  0  0  0  0  0  0
   10.7995   48.3304  133.4229 C   0  0  0  0  0  0  0  0  0  0  0  0
   10.6554   49.8011  133.1913 C   0  0  0  0  0  0  0  0  0  0  0  0
   10.6614   47.5647  132.4448 O   0  0  0  0  0  0  0  0  0  0  0  0
   11.1782   48.5047  135.4921 H   0  0  0  0  0  0  0  0  0  0  0  0
   10.0623   45.6676  135.4611 C   0  0  0  0  0  0  0  0  0  0  0  0
    8.7359   46.2340  135.0900 C   0  0  0  0  0  0  0  0  0  0  0  0
    8.0872   45.6614  133.9175 C   0  0  0  0  0  0  0  0  0  0  0  0
    6.8083   45.0515  134.1223 N   0  0  0  0  0  0  0  0  0  0  0  0
    8.5317   45.6519  132.7676 O   0  0  0  0  0  0  0  0  0  0  0  0
    6.0810   45.5426  134.6628 H   0  0  0  0  0  0  0  0  0  0  0  0
    6.6433   44.1188  133.7251 H   0  0  0  0  0  0  0  0  0  0  0  0
   12.2484   42.6577  132.0799 C   0  0  0  0  0  0  0  0  0  0  0  0
   10.9412   41.9707  131.9319 C   0  0  0  0  0  0  0  0  0  0  0  0
    9.8352   42.4326  132.7742 C   0  0  0  0  0  0  0  0  0  0  0  0
    8.5279   42.7547  132.3198 N   0  0  0  0  0  0  0  0  0  0  0  0
    9.9894   42.5737  134.0431 O   0  0  0  0  0  0  0  0  0  0  0  0
    8.4312   43.6069  131.7425 H   0  0  0  0  0  0  0  0  0  0  0  0
    7.6930   42.1899  132.5365 H   0  0  0  0  0  0  0  0  0  0  0  0
   10.6526   45.1086  128.0516 C   0  0  0  0  0  0  0  0  0  0  0  0
    9.5290   44.1797  127.7414 C   0  0  0  0  0  0  0  0  0  0  0  0
    9.1818   43.3183  128.8939 C   0  0  0  0  0  0  0  0  0  0  0  0
    9.9401   42.0972  129.1366 N   0  0  0  0  0  0  0  0  0  0  0  0
    8.2478   43.6145  129.6660 O   0  0  0  0  0  0  0  0  0  0  0  0
   10.6099   42.1222  129.9094 H   0  0  0  0  0  0  0  0  0  0  0  0
    9.7681   41.2886  128.5331 H   0  0  0  0  0  0  0  0  0  0  0  0
    7.3779   47.9761  127.9365 C   0  0  0  0  0  0  0  0  0  0  0  0
    7.5459   49.3508  128.4404 C   0  0  0  0  0  0  0  0  0  0  0  0
    8.5591   49.8079  129.0042 O   0  0  0  0  0  0  0  0  0  0  0  0
    6.4833   50.3068  128.2717 N   0  0  0  0  0  0  0  0  0  0  0  0
    5.6137   49.9564  127.8186 H   0  0  0  0  0  0  0  0  0  0  0  0
    6.4959   51.6779  128.6483 C   0  0  0  0  0  0  0  0  0  0  0  0
    7.1552   52.5174  127.6554 C   0  0  0  0  0  0  0  0  0  0  0  0
    7.9534   52.0797  126.8022 O   0  0  0  0  0  0  0  0  0  0  0  0
    6.9042   53.9367  127.6232 N   0  0  0  0  0  0  0  0  0  0  0  0
    6.2738   54.4123  128.2919 H   0  0  0  0  0  0  0  0  0  0  0  0
    7.5666   54.7481  126.5880 C   0  0  0  0  0  0  0  0  0  0  0  0
    6.6891   55.9546  126.3435 C   0  0  0  0  0  0  0  0  0  0  0  0
    7.2764   57.2507  126.2654 N   0  0  0  0  0  0  0  0  0  0  0  0
    5.4465   55.8725  126.2041 O   0  0  0  0  0  0  0  0  0  0  0  0
    8.2516   57.4017  126.6212 H   0  0  0  0  0  0  0  0  0  0  0  0
    6.7160   58.0594  125.8474 H   0  0  0  0  0  0  0  0  0  0  0  0
    7.5960   53.9326  125.3514 C   0  0  0  0  0  0  0  0  0  0  0  0
    8.7484   54.3980  124.4789 C   0  0  0  0  0  0  0  0  0  0  0  0
    8.3430   54.5884  123.0739 C   0  0  0  0  0  0  0  0  0  0  0  0
    7.4022   53.7601  122.3998 N   0  0  0  0  0  0  0  0  0  0  0  0
    8.8667   55.5517  122.4306 O   0  0  0  0  0  0  0  0  0  0  0  0
    7.5394   53.5390  121.3676 H   0  0  0  0  0  0  0  0  0  0  0  0
    6.5640   53.3336  122.8240 H   0  0  0  0  0  0  0  0  0  0  0  0
    7.0165   51.8595  130.0549 C   0  0  0  0  0  0  0  0  0  0  0  0
    6.7062   50.7125  130.9704 C   0  0  0  0  0  0  0  0  0  0  0  0
    7.9115   50.0313  131.4951 C   0  0  0  0  0  0  0  0  0  0  0  0
    7.8560   48.7547  132.0529 N   0  0  0  0  0  0  0  0  0  0  0  0
    9.0401   50.6359  131.4368 O   0  0  0  0  0  0  0  0  0  0  0  0
    7.9131   47.9056  131.4809 H   0  0  0  0  0  0  0  0  0  0  0  0
    7.7478   48.6675  133.1063 H   0  0  0  0  0  0  0  0  0  0  0  0
    6.0430   47.3853  128.1603 C   0  0  0  0  0  0  0  0  0  0  0  0
    6.4151   46.2836  130.2905 C   0  0  0  0  0  0  0  0  0  0  0  0
    5.5836   47.3315  129.5766 C   0  0  0  0  0  0  0  0  0  0  0  0
    4.1581   47.0574  129.8307 C   0  0  0  0  0  0  0  0  0  0  0  0
 73 74  1  0  0  0
 74 75  1  0  0  0
 74 72  1  0  0  0
 72 42  1  0  0  0
 42  1  1  0  0  0
  1  2  1  0  0  0
  2  3  2  0  0  0
  2  5  1  0  0  0
  5 35  1  0  0  0
 35 36  1  0  0  0
 36 37  1  0  0  0
 37 38  1  0  0  0
 37 39  2  0  0  0
  5  6  1  0  0  0
  6  7  1  0  0  0
  7  8  2  0  0  0
  7 10  1  0  0  0
 10 28  1  0  0  0
 28 29  1  0  0  0
 29 30  1  0  0  0
 30 31  1  0  0  0
 30 32  2  0  0  0
 10 11  1  0  0  0
 11 12  1  0  0  0
 12 13  2  0  0  0
 12 15  1  0  0  0
 15 21  1  0  0  0
 21 22  1  0  0  0
 22 23  1  0  0  0
 23 24  1  0  0  0
 23 25  2  0  0  0
 15 16  1  0  0  0
 16 17  1  0  0  0
 17 18  1  0  0  0
 17 19  2  0  0  0
 42 43  1  0  0  0
 43 44  2  0  0  0
 43 45  1  0  0  0
 45 47  1  0  0  0
 47 65  1  0  0  0
 65 66  1  0  0  0
 66 67  1  0  0  0
 67 68  1  0  0  0
 67 69  2  0  0  0
 47 48  1  0  0  0
 48 49  2  0  0  0
 48 50  1  0  0  0
 50 52  1  0  0  0
 52 58  1  0  0  0
 58 59  1  0  0  0
 59 60  1  0  0  0
 60 61  1  0  0  0
 60 62  2  0  0  0
 52 53  1  0  0  0
 53 54  1  0  0  0
 53 55  2  0  0  0
  1  4  1  0  0  0
 38 40  1  0  0  0
 38 41  1  0  0  0
  6  9  1  0  0  0
 31 33  1  0  0  0
 31 34  1  0  0  0
 11 14  1  0  0  0
 24 26  1  0  0  0
 24 27  1  0  0  0
 16 20  1  0  0  0
 45 46  1  0  0  0
 68 70  1  0  0  0
 68 71  1  0  0  0
 50 51  1  0  0  0
 61 63  1  0  0  0
 61 64  1  0  0  0
 54 56  1  0  0  0
 54 57  1  0  0  0
M  END
> <minimizedAffinity>
2.82634

> <CNNscore>
0.3686615527

> <CNNaffinity>
8.0078630447

> <CNN_VS>
2.9521911144

> <CNNaffinity_variance>
0.3799750209

$$$$
[H]N([H])C(=O)C([H])([H])C([H])([H])[C@@]([H])(C(=O)N([H])[H])N([H])C(=O)[C@@]([H])(N([H])C(=O)[C@@]([H])(N([H])C(=O)[C@@]([H])(N([H])C(=O)[C@@]([H])(N([H])C(=O)[C@@]([H])(N([H])C(=O)C([H])([H])[H])C([H])([H])C([H])([H])C(=O)N([H])[H])C([H])([H])C([H])([H])C(=O)N([H])[H])C([H])([H])C([H])([H])C(=O)N([H])[H])C([H])([H])C([H])(C([H])([H])[H])C([H])([H])[H])C([H])([H])C([H])([H])C(=O)N([H])[H]


 75 74  0  0  0  0  0  0  0  0999 V2000
    7.4951   48.3134  128.3839 N   0  0  0  0  0  0  0  0  0  0  0  0
    7.7187   49.6308  128.7708 C   0  0  0  0  0  0  0  0  0  0  0  0
    8.7747   49.8776  129.4533 O   0  0  0  0  0  0  0  0  0  0  0  0
    6.6329   48.2009  127.7324 H   0  0  0  0  0  0  0  0  0  0  0  0
    6.8533   50.7715  128.4681 C   0  0  0  0  0  0  0  0  0  0  0  0
    7.2899   51.6474  127.4355 N   0  0  0  0  0  0  0  0  0  0  0  0
    7.3182   53.0516  127.4811 C   0  0  0  0  0  0  0  0  0  0  0  0
    7.0063   53.7355  128.4754 O   0  0  0  0  0  0  0  0  0  0  0  0
    7.6208   51.1780  126.5442 H   0  0  0  0  0  0  0  0  0  0  0  0
    7.7364   53.8363  126.2339 C   0  0  0  0  0  0  0  0  0  0  0  0
    6.5917   54.0552  125.4174 N   0  0  0  0  0  0  0  0  0  0  0  0
    5.7843   55.2026  125.7167 C   0  0  0  0  0  0  0  0  0  0  0  0
    6.1205   55.9487  126.6611 O   0  0  0  0  0  0  0  0  0  0  0  0
    6.2976   53.4859  124.6448 H   0  0  0  0  0  0  0  0  0  0  0  0
    4.5478   55.5452  124.9303 C   0  0  0  0  0  0  0  0  0  0  0  0
    3.7809   56.5753  125.5300 N   0  0  0  0  0  0  0  0  0  0  0  0
    2.7078   56.4404  126.4301 C   0  0  0  0  0  0  0  0  0  0  0  0
    1.9794   57.6249  126.9812 C   0  0  0  0  0  0  0  0  0  0  0  0
    2.3375   55.3024  126.7904 O   0  0  0  0  0  0  0  0  0  0  0  0
    4.0570   57.5756  125.2699 H   0  0  0  0  0  0  0  0  0  0  0  0
    4.8920   55.6688  123.5017 C   0  0  0  0  0  0  0  0  0  0  0  0
    5.1443   54.4018  122.7607 C   0  0  0  0  0  0  0  0  0  0  0  0
    3.9918   53.5404  122.5305 C   0  0  0  0  0  0  0  0  0  0  0  0
    3.0507   53.4230  123.6030 N   0  0  0  0  0  0  0  0  0  0  0  0
    3.7482   52.9041  121.5029 O   0  0  0  0  0  0  0  0  0  0  0  0
    2.7082   54.2667  124.0859 H   0  0  0  0  0  0  0  0  0  0  0  0
    2.7376   52.4839  123.8768 H   0  0  0  0  0  0  0  0  0  0  0  0
    8.6327   54.9264  126.5971 C   0  0  0  0  0  0  0  0  0  0  0  0
    9.2969   55.6437  125.4804 C   0  0  0  0  0  0  0  0  0  0  0  0
    8.8083   55.3839  124.1239 C   0  0  0  0  0  0  0  0  0  0  0  0
    8.2911   56.3596  123.2299 N   0  0  0  0  0  0  0  0  0  0  0  0
    8.8273   54.1947  123.6347 O   0  0  0  0  0  0  0  0  0  0  0  0
    7.3747   56.7736  123.4700 H   0  0  0  0  0  0  0  0  0  0  0  0
    8.7777   56.6640  122.3734 H   0  0  0  0  0  0  0  0  0  0  0  0
    5.3876   50.5349  128.5236 C   0  0  0  0  0  0  0  0  0  0  0  0
    4.8610   49.8168  129.7187 C   0  0  0  0  0  0  0  0  0  0  0  0
    5.4994   50.2759  130.9727 C   0  0  0  0  0  0  0  0  0  0  0  0
    6.7287   49.6411  131.4314 N   0  0  0  0  0  0  0  0  0  0  0  0
    5.0048   51.1987  131.6513 O   0  0  0  0  0  0  0  0  0  0  0  0
    7.5924   50.1742  131.3041 H   0  0  0  0  0  0  0  0  0  0  0  0
    6.6689   48.7095  131.8514 H   0  0  0  0  0  0  0  0  0  0  0  0
    8.1762   47.1164  128.6423 C   0  0  0  0  0  0  0  0  0  0  0  0
    7.6744   46.3460  129.7942 C   0  0  0  0  0  0  0  0  0  0  0  0
    6.6386   46.5871  130.4441 O   0  0  0  0  0  0  0  0  0  0  0  0
    8.3925   45.1811  130.2401 N   0  0  0  0  0  0  0  0  0  0  0  0
    9.2726   44.9574  129.7307 H   0  0  0  0  0  0  0  0  0  0  0  0
    8.0260   44.2994  131.2937 C   0  0  0  0  0  0  0  0  0  0  0  0
    8.4128   44.8118  132.6026 C   0  0  0  0  0  0  0  0  0  0  0  0
    8.1113   44.2556  133.6780 O   0  0  0  0  0  0  0  0  0  0  0  0
    9.1824   46.0263  132.7081 N   0  0  0  0  0  0  0  0  0  0  0  0
    9.4751   46.5806  131.8847 H   0  0  0  0  0  0  0  0  0  0  0  0
    9.5786   46.4978  134.0458 C   0  0  0  0  0  0  0  0  0  0  0  0
   10.2366   47.8464  133.8620 C   0  0  0  0  0  0  0  0  0  0  0  0
    9.8311   48.6892  132.7867 N   0  0  0  0  0  0  0  0  0  0  0  0
   11.1391   48.2700  134.6211 O   0  0  0  0  0  0  0  0  0  0  0  0
    9.2769   48.2873  131.9919 H   0  0  0  0  0  0  0  0  0  0  0  0
   10.0986   49.7242  132.7979 H   0  0  0  0  0  0  0  0  0  0  0  0
   10.5939   45.5476  134.5569 C   0  0  0  0  0  0  0  0  0  0  0  0
   11.9458   45.9006  133.9623 C   0  0  0  0  0  0  0  0  0  0  0  0
   12.4505   44.8488  133.0603 C   0  0  0  0  0  0  0  0  0  0  0  0
   12.6196   45.0199  131.6575 N   0  0  0  0  0  0  0  0  0  0  0  0
   12.7524   43.7243  133.5704 O   0  0  0  0  0  0  0  0  0  0  0  0
   12.4267   44.2049  131.0003 H   0  0  0  0  0  0  0  0  0  0  0  0
   12.9239   45.8878  131.1898 H   0  0  0  0  0  0  0  0  0  0  0  0
    8.4914   42.8883  131.0202 C   0  0  0  0  0  0  0  0  0  0  0  0
    9.9832   42.7389  130.9737 C   0  0  0  0  0  0  0  0  0  0  0  0
   10.5397   41.9953  132.1268 C   0  0  0  0  0  0  0  0  0  0  0  0
   11.5133   41.0095  131.9713 N   0  0  0  0  0  0  0  0  0  0  0  0
   10.1104   42.2652  133.3039 O   0  0  0  0  0  0  0  0  0  0  0  0
   12.5137   41.2310  131.9324 H   0  0  0  0  0  0  0  0  0  0  0  0
   11.1996   39.9978  131.8881 H   0  0  0  0  0  0  0  0  0  0  0  0
    9.6456   47.1391  128.4958 C   0  0  0  0  0  0  0  0  0  0  0  0
   11.8274   46.1207  128.8002 C   0  0  0  0  0  0  0  0  0  0  0  0
   10.3410   45.8376  128.7018 C   0  0  0  0  0  0  0  0  0  0  0  0
   10.1275   44.7746  127.7038 C   0  0  0  0  0  0  0  0  0  0  0  0
 73 74  1  0  0  0
 74 75  1  0  0  0
 74 72  1  0  0  0
 72 42  1  0  0  0
 42  1  1  0  0  0
  1  2  1  0  0  0
  2  3  2  0  0  0
  2  5  1  0  0  0
  5 35  1  0  0  0
 35 36  1  0  0  0
 36 37  1  0  0  0
 37 38  1  0  0  0
 37 39  2  0  0  0
  5  6  1  0  0  0
  6  7  1  0  0  0
  7  8  2  0  0  0
  7 10  1  0  0  0
 10 28  1  0  0  0
 28 29  1  0  0  0
 29 30  1  0  0  0
 30 31  1  0  0  0
 30 32  2  0  0  0
 10 11  1  0  0  0
 11 12  1  0  0  0
 12 13  2  0  0  0
 12 15  1  0  0  0
 15 21  1  0  0  0
 21 22  1  0  0  0
 22 23  1  0  0  0
 23 24  1  0  0  0
 23 25  2  0  0  0
 15 16  1  0  0  0
 16 17  1  0  0  0
 17 18  1  0  0  0
 17 19  2  0  0  0
 42 43  1  0  0  0
 43 44  2  0  0  0
 43 45  1  0  0  0
 45 47  1  0  0  0
 47 65  1  0  0  0
 65 66  1  0  0  0
 66 67  1  0  0  0
 67 68  1  0  0  0
 67 69  2  0  0  0
 47 48  1  0  0  0
 48 49  2  0  0  0
 48 50  1  0  0  0
 50 52  1  0  0  0
 52 58  1  0  0  0
 58 59  1  0  0  0
 59 60  1  0  0  0
 60 61  1  0  0  0
 60 62  2  0  0  0
 52 53  1  0  0  0
 53 54  1  0  0  0
 53 55  2  0  0  0
  1  4  1  0  0  0
 38 40  1  0  0  0
 38 41  1  0  0  0
  6  9  1  0  0  0
 31 33  1  0  0  0
 31 34  1  0  0  0
 11 14  1  0  0  0
 24 26  1  0  0  0
 24 27  1  0  0  0
 16 20  1  0  0  0
 45 46  1  0  0  0
 68 70  1  0  0  0
 68 71  1  0  0  0
 50 51  1  0  0  0
 61 63  1  0  0  0
 61 64  1  0  0  0
 54 56  1  0  0  0
 54 57  1  0  0  0
M  END
> <minimizedAffinity>
1.35782

> <CNNscore>
0.3647516668

> <CNNaffinity>
7.8496832848

> <CNN_VS>
2.8631851673

> <CNNaffinity_variance>
0.3237504959

$$$$
[H]N([H])C(=O)C([H])([H])C([H])([H])[C@@]([H])(C(=O)N([H])[H])N([H])C(=O)[C@@]([H])(N([H])C(=O)[C@@]([H])(N([H])C(=O)[C@@]([H])(N([H])C(=O)[C@@]([H])(N([H])C(=O)[C@@]([H])(N([H])C(=O)C([H])([H])[H])C([H])([H])C([H])([H])C(=O)N([H])[H])C([H])([H])C([H])([H])C(=O)N([H])[H])C([H])([H])C([H])([H])C(=O)N([H])[H])C([H])([H])C([H])(C([H])([H])[H])C([H])([H])[H])C([H])([H])C([H])([H])C(=O)N([H])[H]


 75 74  0  0  0  0  0  0  0  0999 V2000
    7.9275   47.8295  129.0120 N   0  0  0  0  0  0  0  0  0  0  0  0
    8.4721   49.0986  129.1795 C   0  0  0  0  0  0  0  0  0  0  0  0
    9.7487   49.2045  129.1536 O   0  0  0  0  0  0  0  0  0  0  0  0
    6.8427   47.8354  128.9529 H   0  0  0  0  0  0  0  0  0  0  0  0
    7.7165   50.3351  129.3839 C   0  0  0  0  0  0  0  0  0  0  0  0
    7.4788   51.1355  128.2319 N   0  0  0  0  0  0  0  0  0  0  0  0
    7.0846   52.4841  128.2127 C   0  0  0  0  0  0  0  0  0  0  0  0
    6.9366   53.1944  129.2263 O   0  0  0  0  0  0  0  0  0  0  0  0
    7.6124   50.6493  127.2991 H   0  0  0  0  0  0  0  0  0  0  0  0
    6.7853   53.1611  126.8718 C   0  0  0  0  0  0  0  0  0  0  0  0
    5.4150   52.9594  126.5453 N   0  0  0  0  0  0  0  0  0  0  0  0
    4.7005   54.0782  126.0015 C   0  0  0  0  0  0  0  0  0  0  0  0
    5.3051   55.1593  125.8363 O   0  0  0  0  0  0  0  0  0  0  0  0
    4.9001   52.1045  126.6524 H   0  0  0  0  0  0  0  0  0  0  0  0
    3.2479   53.9968  125.6164 C   0  0  0  0  0  0  0  0  0  0  0  0
    2.3795   54.4449  126.6429 N   0  0  0  0  0  0  0  0  0  0  0  0
    1.1568   53.8784  127.0479 C   0  0  0  0  0  0  0  0  0  0  0  0
    0.3349   54.4672  128.1503 C   0  0  0  0  0  0  0  0  0  0  0  0
    0.7283   52.8514  126.4789 O   0  0  0  0  0  0  0  0  0  0  0  0
    2.6970   55.3159  127.1769 H   0  0  0  0  0  0  0  0  0  0  0  0
    3.0679   54.5423  124.2581 C   0  0  0  0  0  0  0  0  0  0  0  0
    4.2973   54.9910  123.5473 C   0  0  0  0  0  0  0  0  0  0  0  0
    4.7624   54.1482  122.4535 C   0  0  0  0  0  0  0  0  0  0  0  0
    3.7649   53.6482  121.5564 N   0  0  0  0  0  0  0  0  0  0  0  0
    5.9300   53.8249  122.2251 O   0  0  0  0  0  0  0  0  0  0  0  0
    3.0518   54.2835  121.1689 H   0  0  0  0  0  0  0  0  0  0  0  0
    3.7780   52.6487  121.3203 H   0  0  0  0  0  0  0  0  0  0  0  0
    7.3926   54.4850  126.8250 C   0  0  0  0  0  0  0  0  0  0  0  0
    8.1379   54.8334  125.5898 C   0  0  0  0  0  0  0  0  0  0  0  0
    8.6469   56.2019  125.4702 C   0  0  0  0  0  0  0  0  0  0  0  0
    9.3878   56.7160  124.3721 N   0  0  0  0  0  0  0  0  0  0  0  0
    8.4347   57.0659  126.3989 O   0  0  0  0  0  0  0  0  0  0  0  0
   10.3499   56.3579  124.2497 H   0  0  0  0  0  0  0  0  0  0  0  0
    9.0168   57.4136  123.7098 H   0  0  0  0  0  0  0  0  0  0  0  0
    6.6017   50.2858  130.3648 C   0  0  0  0  0  0  0  0  0  0  0  0
    6.9100   49.7355  131.7151 C   0  0  0  0  0  0  0  0  0  0  0  0
    8.3644   49.7077  131.9884 C   0  0  0  0  0  0  0  0  0  0  0  0
    9.0394   48.4295  132.1759 N   0  0  0  0  0  0  0  0  0  0  0  0
    9.0296   50.7605  132.0644 O   0  0  0  0  0  0  0  0  0  0  0  0
    9.6169   48.1001  131.3984 H   0  0  0  0  0  0  0  0  0  0  0  0
    8.9054   47.9326  133.0607 H   0  0  0  0  0  0  0  0  0  0  0  0
    8.5003   46.5580  128.8746 C   0  0  0  0  0  0  0  0  0  0  0  0
    8.1155   45.5822  129.9099 C   0  0  0  0  0  0  0  0  0  0  0  0
    7.0999   45.6375  130.6303 O   0  0  0  0  0  0  0  0  0  0  0  0
    8.9379   44.4233  130.1382 N   0  0  0  0  0  0  0  0  0  0  0  0
    9.8044   44.3511  129.5654 H   0  0  0  0  0  0  0  0  0  0  0  0
    8.6907   43.3637  131.0536 C   0  0  0  0  0  0  0  0  0  0  0  0
    8.6155   43.8312  132.4325 C   0  0  0  0  0  0  0  0  0  0  0  0
    7.8891   43.3061  133.3004 O   0  0  0  0  0  0  0  0  0  0  0  0
    9.4025   44.9610  132.8597 N   0  0  0  0  0  0  0  0  0  0  0  0
   10.0279   45.4845  132.2228 H   0  0  0  0  0  0  0  0  0  0  0  0
    9.3215   45.3868  134.2671 C   0  0  0  0  0  0  0  0  0  0  0  0
    8.2587   46.4592  134.3438 C   0  0  0  0  0  0  0  0  0  0  0  0
    7.0324   46.2898  133.6378 N   0  0  0  0  0  0  0  0  0  0  0  0
    8.4034   47.5113  135.0089 O   0  0  0  0  0  0  0  0  0  0  0  0
    6.9643   45.5673  132.8804 H   0  0  0  0  0  0  0  0  0  0  0  0
    6.1926   46.9036  133.8845 H   0  0  0  0  0  0  0  0  0  0  0  0
   10.6272   45.9966  134.6110 C   0  0  0  0  0  0  0  0  0  0  0  0
   11.3914   45.0501  135.5198 C   0  0  0  0  0  0  0  0  0  0  0  0
   11.8252   43.8290  134.8158 C   0  0  0  0  0  0  0  0  0  0  0  0
   13.1061   43.6712  134.2160 N   0  0  0  0  0  0  0  0  0  0  0  0
   11.0032   42.8621  134.7439 O   0  0  0  0  0  0  0  0  0  0  0  0
   13.1995   43.1184  133.3110 H   0  0  0  0  0  0  0  0  0  0  0  0
   13.9926   44.0514  134.5820 H   0  0  0  0  0  0  0  0  0  0  0  0
    9.6499   42.2157  130.8417 C   0  0  0  0  0  0  0  0  0  0  0  0
   10.9791   42.4032  131.5110 C   0  0  0  0  0  0  0  0  0  0  0  0
   11.8136   43.4541  130.8853 C   0  0  0  0  0  0  0  0  0  0  0  0
   12.3641   44.4999  131.6250 N   0  0  0  0  0  0  0  0  0  0  0  0
   12.0341   43.4013  129.6238 O   0  0  0  0  0  0  0  0  0  0  0  0
   13.2604   44.4100  132.1148 H   0  0  0  0  0  0  0  0  0  0  0  0
   11.8292   45.4162  131.6805 H   0  0  0  0  0  0  0  0  0  0  0  0
    9.9165   46.5049  128.4589 C   0  0  0  0  0  0  0  0  0  0  0  0
    9.1022   44.4370  127.4839 C   0  0  0  0  0  0  0  0  0  0  0  0
   10.2898   45.3766  127.5603 C   0  0  0  0  0  0  0  0  0  0  0  0
   11.4914   44.5932  127.8976 C   0  0  0  0  0  0  0  0  0  0  0  0
 73 74  1  0  0  0
 74 75  1  0  0  0
 74 72  1  0  0  0
 72 42  1  0  0  0
 42  1  1  0  0  0
  1  2  1  0  0  0
  2  3  2  0  0  0
  2  5  1  0  0  0
  5 35  1  0  0  0
 35 36  1  0  0  0
 36 37  1  0  0  0
 37 38  1  0  0  0
 37 39  2  0  0  0
  5  6  1  0  0  0
  6  7  1  0  0  0
  7  8  2  0  0  0
  7 10  1  0  0  0
 10 28  1  0  0  0
 28 29  1  0  0  0
 29 30  1  0  0  0
 30 31  1  0  0  0
 30 32  2  0  0  0
 10 11  1  0  0  0
 11 12  1  0  0  0
 12 13  2  0  0  0
 12 15  1  0  0  0
 15 21  1  0  0  0
 21 22  1  0  0  0
 22 23  1  0  0  0
 23 24  1  0  0  0
 23 25  2  0  0  0
 15 16  1  0  0  0
 16 17  1  0  0  0
 17 18  1  0  0  0
 17 19  2  0  0  0
 42 43  1  0  0  0
 43 44  2  0  0  0
 43 45  1  0  0  0
 45 47  1  0  0  0
 47 65  1  0  0  0
 65 66  1  0  0  0
 66 67  1  0  0  0
 67 68  1  0  0  0
 67 69  2  0  0  0
 47 48  1  0  0  0
 48 49  2  0  0  0
 48 50  1  0  0  0
 50 52  1  0  0  0
 52 58  1  0  0  0
 58 59  1  0  0  0
 59 60  1  0  0  0
 60 61  1  0  0  0
 60 62  2  0  0  0
 52 53  1  0  0  0
 53 54  1  0  0  0
 53 55  2  0  0  0
  1  4  1  0  0  0
 38 40  1  0  0  0
 38 41  1  0  0  0
  6  9  1  0  0  0
 31 33  1  0  0  0
 31 34  1  0  0  0
 11 14  1  0  0  0
 24 26  1  0  0  0
 24 27  1  0  0  0
 16 20  1  0  0  0
 45 46  1  0  0  0
 68 70  1  0  0  0
 68 71  1  0  0  0
 50 51  1  0  0  0
 61 63  1  0  0  0
 61 64  1  0  0  0
 54 56  1  0  0  0
 54 57  1  0  0  0
M  END
> <minimizedAffinity>
4.22304

> <CNNscore>
0.3581055105

> <CNNaffinity>
7.7285475731

> <CNN_VS>
2.7676355839

> <CNNaffinity_variance>
0.2996710837

$$$$
[H]N([H])C(=O)C([H])([H])C([H])([H])[C@@]([H])(C(=O)N([H])[H])N([H])C(=O)[C@@]([H])(N([H])C(=O)[C@@]([H])(N([H])C(=O)[C@@]([H])(N([H])C(=O)[C@@]([H])(N([H])C(=O)[C@@]([H])(N([H])C(=O)C([H])([H])[H])C([H])([H])C([H])([H])C(=O)N([H])[H])C([H])([H])C([H])([H])C(=O)N([H])[H])C([H])([H])C([H])([H])C(=O)N([H])[H])C([H])([H])C([H])(C([H])([H])[H])C([H])([H])[H])C([H])([H])C([H])([H])C(=O)N([H])[H]


 75 74  0  0  0  0  0  0  0  0999 V2000
    8.2277   46.9473  128.3219 N   0  0  0  0  0  0  0  0  0  0  0  0
    9.3822   46.8661  129.0938 C   0  0  0  0  0  0  0  0  0  0  0  0
    9.5909   47.7972  129.9488 O   0  0  0  0  0  0  0  0  0  0  0  0
    8.0754   46.0769  127.6897 H   0  0  0  0  0  0  0  0  0  0  0  0
   10.3894   45.8069  129.0203 C   0  0  0  0  0  0  0  0  0  0  0  0
   10.7243   45.1590  130.2418 N   0  0  0  0  0  0  0  0  0  0  0  0
   11.9608   44.5800  130.5742 C   0  0  0  0  0  0  0  0  0  0  0  0
   12.9727   44.6017  129.8466 O   0  0  0  0  0  0  0  0  0  0  0  0
    9.9497   45.1120  130.9644 H   0  0  0  0  0  0  0  0  0  0  0  0
   12.1114   43.8417  131.9077 C   0  0  0  0  0  0  0  0  0  0  0  0
   11.5390   44.6320  132.9434 N   0  0  0  0  0  0  0  0  0  0  0  0
   11.8367   46.0354  132.9359 C   0  0  0  0  0  0  0  0  0  0  0  0
   12.5680   46.4934  132.0321 O   0  0  0  0  0  0  0  0  0  0  0  0
   10.9388   44.3022  133.6772 H   0  0  0  0  0  0  0  0  0  0  0  0
   11.2954   46.9796  133.9753 C   0  0  0  0  0  0  0  0  0  0  0  0
   12.3148   47.6105  134.7312 N   0  0  0  0  0  0  0  0  0  0  0  0
   13.5576   47.0770  135.1195 C   0  0  0  0  0  0  0  0  0  0  0  0
   14.5405   47.8610  135.9298 C   0  0  0  0  0  0  0  0  0  0  0  0
   13.8659   45.9125  134.7866 O   0  0  0  0  0  0  0  0  0  0  0  0
   12.1155   48.6161  135.0373 H   0  0  0  0  0  0  0  0  0  0  0  0
   10.2446   47.8222  133.3747 C   0  0  0  0  0  0  0  0  0  0  0  0
    8.8348   47.4697  133.7003 C   0  0  0  0  0  0  0  0  0  0  0  0
    8.6337   46.3029  134.5496 C   0  0  0  0  0  0  0  0  0  0  0  0
    7.6519   45.3542  134.1189 N   0  0  0  0  0  0  0  0  0  0  0  0
    9.2268   46.0532  135.6012 O   0  0  0  0  0  0  0  0  0  0  0  0
    7.6437   45.0246  133.1424 H   0  0  0  0  0  0  0  0  0  0  0  0
    6.9611   45.0224  134.8028 H   0  0  0  0  0  0  0  0  0  0  0  0
   11.7730   42.4332  131.7490 C   0  0  0  0  0  0  0  0  0  0  0  0
   10.8177   41.8621  132.7308 C   0  0  0  0  0  0  0  0  0  0  0  0
    9.5470   42.5646  132.9254 C   0  0  0  0  0  0  0  0  0  0  0  0
    8.6515   42.3692  134.0113 N   0  0  0  0  0  0  0  0  0  0  0  0
    9.1505   43.4521  132.0833 O   0  0  0  0  0  0  0  0  0  0  0  0
    8.1467   41.4676  134.0435 H   0  0  0  0  0  0  0  0  0  0  0  0
    8.4873   43.0706  134.7489 H   0  0  0  0  0  0  0  0  0  0  0  0
   10.3518   44.9271  127.8236 C   0  0  0  0  0  0  0  0  0  0  0  0
   10.1754   43.4663  128.0609 C   0  0  0  0  0  0  0  0  0  0  0  0
    9.0290   43.1794  128.9521 C   0  0  0  0  0  0  0  0  0  0  0  0
    9.0081   41.9447  129.7265 N   0  0  0  0  0  0  0  0  0  0  0  0
    8.0733   43.9747  129.0548 O   0  0  0  0  0  0  0  0  0  0  0  0
    9.2087   42.0295  130.7260 H   0  0  0  0  0  0  0  0  0  0  0  0
    8.7971   41.0684  129.2413 H   0  0  0  0  0  0  0  0  0  0  0  0
    7.2141   47.9099  128.2229 C   0  0  0  0  0  0  0  0  0  0  0  0
    7.6214   49.2856  128.5596 C   0  0  0  0  0  0  0  0  0  0  0  0
    8.7899   49.6859  128.7262 O   0  0  0  0  0  0  0  0  0  0  0  0
    6.6214   50.3116  128.6974 N   0  0  0  0  0  0  0  0  0  0  0  0
    5.6314   50.0109  128.5809 H   0  0  0  0  0  0  0  0  0  0  0  0
    6.8397   51.6907  128.9662 C   0  0  0  0  0  0  0  0  0  0  0  0
    7.0624   52.4622  127.7494 C   0  0  0  0  0  0  0  0  0  0  0  0
    7.6267   52.0038  126.7354 O   0  0  0  0  0  0  0  0  0  0  0  0
    6.6274   53.8344  127.6702 N   0  0  0  0  0  0  0  0  0  0  0  0
    6.1630   54.3239  128.4548 H   0  0  0  0  0  0  0  0  0  0  0  0
    6.8444   54.5731  126.4148 C   0  0  0  0  0  0  0  0  0  0  0  0
    8.3031   54.9690  126.3816 C   0  0  0  0  0  0  0  0  0  0  0  0
    9.1598   54.4245  125.3814 N   0  0  0  0  0  0  0  0  0  0  0  0
    8.8084   55.7666  127.2054 O   0  0  0  0  0  0  0  0  0  0  0  0
    8.8557   53.5785  124.8410 H   0  0  0  0  0  0  0  0  0  0  0  0
   10.1076   54.8817  125.1928 H   0  0  0  0  0  0  0  0  0  0  0  0
    6.0265   55.8061  126.4909 C   0  0  0  0  0  0  0  0  0  0  0  0
    5.2399   55.9586  125.2010 C   0  0  0  0  0  0  0  0  0  0  0  0
    3.8716   55.4206  125.3149 C   0  0  0  0  0  0  0  0  0  0  0  0
    3.3016   54.4989  124.3923 N   0  0  0  0  0  0  0  0  0  0  0  0
    3.1630   55.8048  126.2978 O   0  0  0  0  0  0  0  0  0  0  0  0
    2.2667   54.5660  124.1520 H   0  0  0  0  0  0  0  0  0  0  0  0
    3.8071   53.7386  123.9118 H   0  0  0  0  0  0  0  0  0  0  0  0
    7.9001   51.8861  130.0246 C   0  0  0  0  0  0  0  0  0  0  0  0
    7.8946   50.8321  131.0918 C   0  0  0  0  0  0  0  0  0  0  0  0
    9.2318   50.5688  131.6704 C   0  0  0  0  0  0  0  0  0  0  0  0
    9.5257   50.8375  133.0066 N   0  0  0  0  0  0  0  0  0  0  0  0
   10.1477   50.0813  130.9180 O   0  0  0  0  0  0  0  0  0  0  0  0
    9.3290   50.1649  133.7552 H   0  0  0  0  0  0  0  0  0  0  0  0
    9.9654   51.7738  133.2491 H   0  0  0  0  0  0  0  0  0  0  0  0
    5.8727   47.5186  128.7010 C   0  0  0  0  0  0  0  0  0  0  0  0
    4.4182   46.4008  130.2900 C   0  0  0  0  0  0  0  0  0  0  0  0
    5.8389   46.4765  129.7654 C   0  0  0  0  0  0  0  0  0  0  0  0
    6.7573   46.6259  130.9080 C   0  0  0  0  0  0  0  0  0  0  0  0
 73 74  1  0  0  0
 74 75  1  0  0  0
 74 72  1  0  0  0
 72 42  1  0  0  0
 42  1  1  0  0  0
  1  2  1  0  0  0
  2  3  2  0  0  0
  2  5  1  0  0  0
  5 35  1  0  0  0
 35 36  1  0  0  0
 36 37  1  0  0  0
 37 38  1  0  0  0
 37 39  2  0  0  0
  5  6  1  0  0  0
  6  7  1  0  0  0
  7  8  2  0  0  0
  7 10  1  0  0  0
 10 28  1  0  0  0
 28 29  1  0  0  0
 29 30  1  0  0  0
 30 31  1  0  0  0
 30 32  2  0  0  0
 10 11  1  0  0  0
 11 12  1  0  0  0
 12 13  2  0  0  0
 12 15  1  0  0  0
 15 21  1  0  0  0
 21 22  1  0  0  0
 22 23  1  0  0  0
 23 24  1  0  0  0
 23 25  2  0  0  0
 15 16  1  0  0  0
 16 17  1  0  0  0
 17 18  1  0  0  0
 17 19  2  0  0  0
 42 43  1  0  0  0
 43 44  2  0  0  0
 43 45  1  0  0  0
 45 47  1  0  0  0
 47 65  1  0  0  0
 65 66  1  0  0  0
 66 67  1  0  0  0
 67 68  1  0  0  0
 67 69  2  0  0  0
 47 48  1  0  0  0
 48 49  2  0  0  0
 48 50  1  0  0  0
 50 52  1  0  0  0
 52 58  1  0  0  0
 58 59  1  0  0  0
 59 60  1  0  0  0
 60 61  1  0  0  0
 60 62  2  0  0  0
 52 53  1  0  0  0
 53 54  1  0  0  0
 53 55  2  0  0  0
  1  4  1  0  0  0
 38 40  1  0  0  0
 38 41  1  0  0  0
  6  9  1  0  0  0
 31 33  1  0  0  0
 31 34  1  0  0  0
 11 14  1  0  0  0
 24 26  1  0  0  0
 24 27  1  0  0  0
 16 20  1  0  0  0
 45 46  1  0  0  0
 68 70  1  0  0  0
 68 71  1  0  0  0
 50 51  1  0  0  0
 61 63  1  0  0  0
 61 64  1  0  0  0
 54 56  1  0  0  0
 54 57  1  0  0  0
M  END
> <minimizedAffinity>
5.73043

> <CNNscore>
0.3553121090

> <CNNaffinity>
7.6753110886

> <CNN_VS>
2.7271308899

> <CNNaffinity_variance>
0.2477062941

$$$$
[H]N([H])C(=O)C([H])([H])C([H])([H])[C@@]([H])(C(=O)N([H])[H])N([H])C(=O)[C@@]([H])(N([H])C(=O)[C@@]([H])(N([H])C(=O)[C@@]([H])(N([H])C(=O)[C@@]([H])(N([H])C(=O)[C@@]([H])(N([H])C(=O)C([H])([H])[H])C([H])([H])C([H])([H])C(=O)N([H])[H])C([H])([H])C([H])([H])C(=O)N([H])[H])C([H])([H])C([H])([H])C(=O)N([H])[H])C([H])([H])C([H])(C([H])([H])[H])C([H])([H])[H])C([H])([H])C([H])([H])C(=O)N([H])[H]


 75 74  0  0  0  0  0  0  0  0999 V2000
    6.9086   50.5785  128.2945 N   0  0  0  0  0  0  0  0  0  0  0  0
    7.8073   49.6418  128.7946 C   0  0  0  0  0  0  0  0  0  0  0  0
    8.4291   49.9346  129.8760 O   0  0  0  0  0  0  0  0  0  0  0  0
    6.3551   50.2198  127.4311 H   0  0  0  0  0  0  0  0  0  0  0  0
    8.1114   48.3414  128.1960 C   0  0  0  0  0  0  0  0  0  0  0  0
    9.2674   47.6697  128.6825 N   0  0  0  0  0  0  0  0  0  0  0  0
    9.3656   46.3121  129.0314 C   0  0  0  0  0  0  0  0  0  0  0  0
    8.4454   45.4800  128.9099 O   0  0  0  0  0  0  0  0  0  0  0  0
   10.1351   48.2692  128.7922 H   0  0  0  0  0  0  0  0  0  0  0  0
   10.6732   45.7812  129.6268 C   0  0  0  0  0  0  0  0  0  0  0  0
   10.4681   45.4783  131.0020 N   0  0  0  0  0  0  0  0  0  0  0  0
   10.5026   46.5754  131.9257 C   0  0  0  0  0  0  0  0  0  0  0  0
   10.7018   47.7286  131.4876 O   0  0  0  0  0  0  0  0  0  0  0  0
   10.2938   44.5685  131.3886 H   0  0  0  0  0  0  0  0  0  0  0  0
   10.3018   46.3894  133.4056 C   0  0  0  0  0  0  0  0  0  0  0  0
    9.3657   47.3014  133.9538 N   0  0  0  0  0  0  0  0  0  0  0  0
    8.9133   47.3794  135.2839 C   0  0  0  0  0  0  0  0  0  0  0  0
    7.9084   48.3966  135.7230 C   0  0  0  0  0  0  0  0  0  0  0  0
    9.3536   46.5806  136.1384 O   0  0  0  0  0  0  0  0  0  0  0  0
    8.9598   48.0204  133.2734 H   0  0  0  0  0  0  0  0  0  0  0  0
   10.1392   44.9542  133.7033 C   0  0  0  0  0  0  0  0  0  0  0  0
   11.3856   44.1705  133.9275 C   0  0  0  0  0  0  0  0  0  0  0  0
   11.5666   42.9832  133.1025 C   0  0  0  0  0  0  0  0  0  0  0  0
   10.3791   42.2991  132.6886 N   0  0  0  0  0  0  0  0  0  0  0  0
   12.6417   42.5115  132.7259 O   0  0  0  0  0  0  0  0  0  0  0  0
    9.5887   42.8279  132.2913 H   0  0  0  0  0  0  0  0  0  0  0  0
   10.3375   41.2795  132.8054 H   0  0  0  0  0  0  0  0  0  0  0  0
   11.2916   44.8229  128.7197 C   0  0  0  0  0  0  0  0  0  0  0  0
   12.7574   44.9432  128.5207 C   0  0  0  0  0  0  0  0  0  0  0  0
   13.6283   44.4349  129.5834 C   0  0  0  0  0  0  0  0  0  0  0  0
   14.9312   43.8986  129.3996 N   0  0  0  0  0  0  0  0  0  0  0  0
   13.2463   44.4524  130.8113 O   0  0  0  0  0  0  0  0  0  0  0  0
   14.9965   42.9840  128.9221 H   0  0  0  0  0  0  0  0  0  0  0  0
   15.7922   44.3702  129.7147 H   0  0  0  0  0  0  0  0  0  0  0  0
    6.9561   47.4651  127.8724 C   0  0  0  0  0  0  0  0  0  0  0  0
    5.6521   47.7975  128.5132 C   0  0  0  0  0  0  0  0  0  0  0  0
    5.3399   46.8962  129.6450 C   0  0  0  0  0  0  0  0  0  0  0  0
    3.9603   46.4924  129.8869 N   0  0  0  0  0  0  0  0  0  0  0  0
    6.2363   46.4730  130.4026 O   0  0  0  0  0  0  0  0  0  0  0  0
    3.7111   45.5369  129.6196 H   0  0  0  0  0  0  0  0  0  0  0  0
    3.3197   47.1722  130.3053 H   0  0  0  0  0  0  0  0  0  0  0  0
    6.5572   51.8727  128.7011 C   0  0  0  0  0  0  0  0  0  0  0  0
    7.3865   52.9532  128.1382 C   0  0  0  0  0  0  0  0  0  0  0  0
    8.3671   53.4897  128.6895 O   0  0  0  0  0  0  0  0  0  0  0  0
    7.1001   53.4596  126.8218 N   0  0  0  0  0  0  0  0  0  0  0  0
    6.2770   53.0461  126.3363 H   0  0  0  0  0  0  0  0  0  0  0  0
    7.8236   54.4558  126.1105 C   0  0  0  0  0  0  0  0  0  0  0  0
    7.0398   55.6680  125.9064 C   0  0  0  0  0  0  0  0  0  0  0  0
    7.5419   56.8060  125.8094 O   0  0  0  0  0  0  0  0  0  0  0  0
    5.6032   55.5957  125.8100 N   0  0  0  0  0  0  0  0  0  0  0  0
    5.0774   54.7082  125.8921 H   0  0  0  0  0  0  0  0  0  0  0  0
    4.8474   56.8377  125.5756 C   0  0  0  0  0  0  0  0  0  0  0  0
    4.4478   57.3742  126.9313 C   0  0  0  0  0  0  0  0  0  0  0  0
    5.4515   57.6564  127.9028 N   0  0  0  0  0  0  0  0  0  0  0  0
    3.2553   57.5871  127.2520 O   0  0  0  0  0  0  0  0  0  0  0  0
    6.4170   57.2650  127.7814 H   0  0  0  0  0  0  0  0  0  0  0  0
    5.2103   58.2627  128.7497 H   0  0  0  0  0  0  0  0  0  0  0  0
    3.6174   56.4638  124.8392 C   0  0  0  0  0  0  0  0  0  0  0  0
    3.2378   55.0387  125.2010 C   0  0  0  0  0  0  0  0  0  0  0  0
    3.2721   54.1385  124.0335 C   0  0  0  0  0  0  0  0  0  0  0  0
    4.1302   54.3237  122.9132 N   0  0  0  0  0  0  0  0  0  0  0  0
    2.4876   53.1383  124.0322 O   0  0  0  0  0  0  0  0  0  0  0  0
    3.7849   54.0729  121.9380 H   0  0  0  0  0  0  0  0  0  0  0  0
    5.0940   54.6901  122.9480 H   0  0  0  0  0  0  0  0  0  0  0  0
    8.4374   53.8969  124.8481 C   0  0  0  0  0  0  0  0  0  0  0  0
    8.9553   54.9453  123.9086 C   0  0  0  0  0  0  0  0  0  0  0  0
    8.2492   54.9749  122.6075 C   0  0  0  0  0  0  0  0  0  0  0  0
    8.5722   55.8952  121.6112 N   0  0  0  0  0  0  0  0  0  0  0  0
    7.3102   54.1295  122.3925 O   0  0  0  0  0  0  0  0  0  0  0  0
    9.3226   55.7256  120.9333 H   0  0  0  0  0  0  0  0  0  0  0  0
    8.0195   56.8012  121.5614 H   0  0  0  0  0  0  0  0  0  0  0  0
    6.1771   52.0475  130.1175 C   0  0  0  0  0  0  0  0  0  0  0  0
    4.4209   51.4266  131.6733 C   0  0  0  0  0  0  0  0  0  0  0  0
    5.5025   50.8844  130.7593 C   0  0  0  0  0  0  0  0  0  0  0  0
    6.3349   49.9374  131.5221 C   0  0  0  0  0  0  0  0  0  0  0  0
 73 74  1  0  0  0
 74 75  1  0  0  0
 74 72  1  0  0  0
 72 42  1  0  0  0
 42  1  1  0  0  0
  1  2  1  0  0  0
  2  3  2  0  0  0
  2  5  1  0  0  0
  5 35  1  0  0  0
 35 36  1  0  0  0
 36 37  1  0  0  0
 37 38  1  0  0  0
 37 39  2  0  0  0
  5  6  1  0  0  0
  6  7  1  0  0  0
  7  8  2  0  0  0
  7 10  1  0  0  0
 10 28  1  0  0  0
 28 29  1  0  0  0
 29 30  1  0  0  0
 30 31  1  0  0  0
 30 32  2  0  0  0
 10 11  1  0  0  0
 11 12  1  0  0  0
 12 13  2  0  0  0
 12 15  1  0  0  0
 15 21  1  0  0  0
 21 22  1  0  0  0
 22 23  1  0  0  0
 23 24  1  0  0  0
 23 25  2  0  0  0
 15 16  1  0  0  0
 16 17  1  0  0  0
 17 18  1  0  0  0
 17 19  2  0  0  0
 42 43  1  0  0  0
 43 44  2  0  0  0
 43 45  1  0  0  0
 45 47  1  0  0  0
 47 65  1  0  0  0
 65 66  1  0  0  0
 66 67  1  0  0  0
 67 68  1  0  0  0
 67 69  2  0  0  0
 47 48  1  0  0  0
 48 49  2  0  0  0
 48 50  1  0  0  0
 50 52  1  0  0  0
 52 58  1  0  0  0
 58 59  1  0  0  0
 59 60  1  0  0  0
 60 61  1  0  0  0
 60 62  2  0  0  0
 52 53  1  0  0  0
 53 54  1  0  0  0
 53 55  2  0  0  0
  1  4  1  0  0  0
 38 40  1  0  0  0
 38 41  1  0  0  0
  6  9  1  0  0  0
 31 33  1  0  0  0
 31 34  1  0  0  0
 11 14  1  0  0  0
 24 26  1  0  0  0
 24 27  1  0  0  0
 16 20  1  0  0  0
 45 46  1  0  0  0
 68 70  1  0  0  0
 68 71  1  0  0  0
 50 51  1  0  0  0
 61 63  1  0  0  0
 61 64  1  0  0  0
 54 56  1  0  0  0
 54 57  1  0  0  0
M  END
> <minimizedAffinity>
4.68544

> <CNNscore>
0.3533717394

> <CNNaffinity>
7.8183760643

> <CNN_VS>
2.7627930641

> <CNNaffinity_variance>
0.2971603274

$$$$
[H]C([H])=C([H])C(=O)N1C([H])([H])C([H])([H])C([H])([H])C([H])(n2nc(-c3c([H])c([H])c(Oc4c([H])c([H])c([H])c([H])c4[H])c([H])c3[H])c(C(=O)N([H])[H])c2N([H])[H])C1([H])[H]


 36 39  0  0  0  0  0  0  0  0999 V2000
    9.3687   45.6059  130.2176 C   0  0  0  0  0  0  0  0  0  0  0  0
    9.4319   46.2150  131.4946 C   0  0  0  0  0  0  0  0  0  0  0  0
    8.9906   47.5322  131.8116 N   0  0  0  0  0  0  0  0  0  0  0  0
    9.9823   45.3023  132.3066 N   0  0  0  0  0  0  0  0  0  0  0  0
   10.2519   44.2221  131.6481 N   0  0  0  0  0  0  0  0  0  0  0  0
    9.8931   44.3447  130.3289 C   0  0  0  0  0  0  0  0  0  0  0  0
    7.9910   47.7971  131.9267 H   0  0  0  0  0  0  0  0  0  0  0  0
    9.7097   48.2795  131.9366 H   0  0  0  0  0  0  0  0  0  0  0  0
   10.2028   45.5953  133.7351 C   0  0  0  0  0  0  0  0  0  0  0  0
    9.0474   45.1341  134.5539 C   0  0  0  0  0  0  0  0  0  0  0  0
    9.3652   45.3736  136.0264 C   0  0  0  0  0  0  0  0  0  0  0  0
    9.6024   46.8417  136.2800 C   0  0  0  0  0  0  0  0  0  0  0  0
    9.5794   47.5471  135.0040 N   0  0  0  0  0  0  0  0  0  0  0  0
   10.4293   47.0665  133.9494 C   0  0  0  0  0  0  0  0  0  0  0  0
    8.7626   48.6694  134.7991 C   0  0  0  0  0  0  0  0  0  0  0  0
    8.0295   49.0284  135.7879 O   0  0  0  0  0  0  0  0  0  0  0  0
    8.6564   49.4666  133.5980 C   0  0  0  0  0  0  0  0  0  0  0  0
    9.7318   49.9069  132.9485 C   0  0  0  0  0  0  0  0  0  0  0  0
   10.0309   43.3089  129.3241 C   0  0  0  0  0  0  0  0  0  0  0  0
   10.3328   43.5161  128.0068 C   0  0  0  0  0  0  0  0  0  0  0  0
   10.4234   42.4758  127.0771 C   0  0  0  0  0  0  0  0  0  0  0  0
   10.2033   41.1721  127.4810 C   0  0  0  0  0  0  0  0  0  0  0  0
    9.9002   40.9454  128.8012 C   0  0  0  0  0  0  0  0  0  0  0  0
    9.8116   41.9730  129.7139 C   0  0  0  0  0  0  0  0  0  0  0  0
   10.2950   40.1654  126.5587 O   0  0  0  0  0  0  0  0  0  0  0  0
   11.4584   39.5250  126.2073 C   0  0  0  0  0  0  0  0  0  0  0  0
   11.9198   38.4579  126.9335 C   0  0  0  0  0  0  0  0  0  0  0  0
   13.1046   37.8140  126.5660 C   0  0  0  0  0  0  0  0  0  0  0  0
   13.8390   38.2347  125.4655 C   0  0  0  0  0  0  0  0  0  0  0  0
   13.3639   39.3075  124.7456 C   0  0  0  0  0  0  0  0  0  0  0  0
   12.1881   39.9468  125.1096 C   0  0  0  0  0  0  0  0  0  0  0  0
    9.3318   46.2185  127.7905 N   0  0  0  0  0  0  0  0  0  0  0  0
    8.7941   46.2905  129.0799 C   0  0  0  0  0  0  0  0  0  0  0  0
    7.7608   46.9882  129.2218 O   0  0  0  0  0  0  0  0  0  0  0  0
    9.2733   45.4046  127.1374 H   0  0  0  0  0  0  0  0  0  0  0  0
    9.8608   47.0505  127.3909 H   0  0  0  0  0  0  0  0  0  0  0  0
 32 33  1  0  0  0
 33 34  2  0  0  0
 33  1  1  0  0  0
  1  2  2  0  0  0
  2  3  1  0  0  0
  2  4  1  0  0  0
  4  5  1  0  0  0
  5  6  2  0  0  0
  6 19  1  0  0  0
 19 20  2  0  0  0
 20 21  1  0  0  0
 21 22  2  0  0  0
 22 25  1  0  0  0
 25 26  1  0  0  0
 26 27  2  0  0  0
 27 28  1  0  0  0
 28 29  2  0  0  0
 29 30  1  0  0  0
 30 31  2  0  0  0
 22 23  1  0  0  0
 23 24  2  0  0  0
  4  9  1  0  0  0
  9 10  1  0  0  0
 10 11  1  0  0  0
 11 12  1  0  0  0
 12 13  1  0  0  0
 13 14  1  0  0  0
 13 15  1  0  0  0
 15 16  2  0  0  0
 15 17  1  0  0  0
 17 18  2  0  0  0
  6  1  1  0  0  0
 24 19  1  0  0  0
 14  9  1  0  0  0
 31 26  1  0  0  0
 32 35  1  0  0  0
 32 36  1  0  0  0
  3  7  1  0  0  0
  3  8  1  0  0  0
M  END
> <minimizedAffinity>
22.33335

> <CNNscore>
0.4756279290

> <CNNaffinity>
7.1393175125

> <CNN_VS>
3.3956587315

> <CNNaffinity_variance>
1.2968231440

$$$$
[H]C([H])=C([H])C(=O)N1C([H])([H])C([H])([H])C([H])([H])C([H])(n2nc(-c3c([H])c([H])c(Oc4c([H])c([H])c([H])c([H])c4[H])c([H])c3[H])c(C(=O)N([H])[H])c2N([H])[H])C1([H])[H]


 36 39  0  0  0  0  0  0  0  0999 V2000
    9.5841   43.5739  129.1227 C   0  0  0  0  0  0  0  0  0  0  0  0
    9.8672   42.5491  130.0583 C   0  0  0  0  0  0  0  0  0  0  0  0
   10.3755   41.2548  129.7473 N   0  0  0  0  0  0  0  0  0  0  0  0
    9.5581   43.0568  131.2591 N   0  0  0  0  0  0  0  0  0  0  0  0
    9.1225   44.2683  131.1341 N   0  0  0  0  0  0  0  0  0  0  0  0
    9.1114   44.6563  129.8175 C   0  0  0  0  0  0  0  0  0  0  0  0
   11.3686   41.0654  129.5013 H   0  0  0  0  0  0  0  0  0  0  0  0
    9.7157   40.4452  129.7659 H   0  0  0  0  0  0  0  0  0  0  0  0
    9.7312   42.2570  132.4862 C   0  0  0  0  0  0  0  0  0  0  0  0
    8.6094   42.4965  133.4360 C   0  0  0  0  0  0  0  0  0  0  0  0
    8.7857   41.5793  134.6420 C   0  0  0  0  0  0  0  0  0  0  0  0
   10.0954   41.8671  135.3332 C   0  0  0  0  0  0  0  0  0  0  0  0
   10.8354   42.8462  134.5458 N   0  0  0  0  0  0  0  0  0  0  0  0
   11.0428   42.5748  133.1497 C   0  0  0  0  0  0  0  0  0  0  0  0
   11.3437   44.0202  135.1219 C   0  0  0  0  0  0  0  0  0  0  0  0
   11.1084   44.1898  136.3708 O   0  0  0  0  0  0  0  0  0  0  0  0
   12.1042   45.0590  134.4646 C   0  0  0  0  0  0  0  0  0  0  0  0
   11.5141   46.0905  133.8649 C   0  0  0  0  0  0  0  0  0  0  0  0
    8.7089   45.9620  129.3330 C   0  0  0  0  0  0  0  0  0  0  0  0
    8.1535   46.2182  128.1102 C   0  0  0  0  0  0  0  0  0  0  0  0
    7.8125   47.5065  127.6874 C   0  0  0  0  0  0  0  0  0  0  0  0
    8.0357   48.5854  128.5224 C   0  0  0  0  0  0  0  0  0  0  0  0
    8.5918   48.3462  129.7552 C   0  0  0  0  0  0  0  0  0  0  0  0
    8.9267   47.0755  130.1679 C   0  0  0  0  0  0  0  0  0  0  0  0
    7.6971   49.8399  128.0935 O   0  0  0  0  0  0  0  0  0  0  0  0
    7.0113   50.7672  128.8398 C   0  0  0  0  0  0  0  0  0  0  0  0
    7.1676   52.1093  128.6088 C   0  0  0  0  0  0  0  0  0  0  0  0
    6.4640   53.0434  129.3743 C   0  0  0  0  0  0  0  0  0  0  0  0
    5.5961   52.6401  130.3800 C   0  0  0  0  0  0  0  0  0  0  0  0
    5.4491   51.2893  130.6009 C   0  0  0  0  0  0  0  0  0  0  0  0
    6.1468   50.3618  129.8416 C   0  0  0  0  0  0  0  0  0  0  0  0
   10.8939   44.0015  127.0324 N   0  0  0  0  0  0  0  0  0  0  0  0
    9.8289   43.3960  127.7079 C   0  0  0  0  0  0  0  0  0  0  0  0
    9.0700   42.6665  127.0251 O   0  0  0  0  0  0  0  0  0  0  0  0
   11.9007   43.7262  127.0863 H   0  0  0  0  0  0  0  0  0  0  0  0
   10.7100   44.8274  126.3877 H   0  0  0  0  0  0  0  0  0  0  0  0
 32 33  1  0  0  0
 33 34  2  0  0  0
 33  1  1  0  0  0
  1  2  2  0  0  0
  2  3  1  0  0  0
  2  4  1  0  0  0
  4  5  1  0  0  0
  5  6  2  0  0  0
  6 19  1  0  0  0
 19 20  2  0  0  0
 20 21  1  0  0  0
 21 22  2  0  0  0
 22 25  1  0  0  0
 25 26  1  0  0  0
 26 27  2  0  0  0
 27 28  1  0  0  0
 28 29  2  0  0  0
 29 30  1  0  0  0
 30 31  2  0  0  0
 22 23  1  0  0  0
 23 24  2  0  0  0
  4  9  1  0  0  0
  9 10  1  0  0  0
 10 11  1  0  0  0
 11 12  1  0  0  0
 12 13  1  0  0  0
 13 14  1  0  0  0
 13 15  1  0  0  0
 15 16  2  0  0  0
 15 17  1  0  0  0
 17 18  2  0  0  0
  6  1  1  0  0  0
 24 19  1  0  0  0
 14  9  1  0  0  0
 31 26  1  0  0  0
 32 35  1  0  0  0
 32 36  1  0  0  0
  3  7  1  0  0  0
  3  8  1  0  0  0
M  END
> <minimizedAffinity>
23.51896

> <CNNscore>
0.4506894648

> <CNNaffinity>
7.3494443893

> <CNN_VS>
3.3123171329

> <CNNaffinity_variance>
1.7465168238

$$$$
[H]C([H])=C([H])C(=O)N1C([H])([H])C([H])([H])C([H])([H])C([H])(n2nc(-c3c([H])c([H])c(Oc4c([H])c([H])c([H])c([H])c4[H])c([H])c3[H])c(C(=O)N([H])[H])c2N([H])[H])C1([H])[H]


 36 39  0  0  0  0  0  0  0  0999 V2000
    8.6916   46.3849  129.5259 C   0  0  0  0  0  0  0  0  0  0  0  0
    8.6231   47.0474  130.7758 C   0  0  0  0  0  0  0  0  0  0  0  0
    8.2238   48.3997  130.9806 N   0  0  0  0  0  0  0  0  0  0  0  0
    9.0065   46.1442  131.6881 N   0  0  0  0  0  0  0  0  0  0  0  0
    9.2949   45.0220  131.1132 N   0  0  0  0  0  0  0  0  0  0  0  0
    9.1202   45.1035  129.7541 C   0  0  0  0  0  0  0  0  0  0  0  0
    7.2355   48.7236  130.9509 H   0  0  0  0  0  0  0  0  0  0  0  0
    8.9638   49.1118  131.1720 H   0  0  0  0  0  0  0  0  0  0  0  0
    9.0549   46.4897  133.1211 C   0  0  0  0  0  0  0  0  0  0  0  0
   10.3520   47.1353  133.4658 C   0  0  0  0  0  0  0  0  0  0  0  0
   10.3141   47.5567  134.9313 C   0  0  0  0  0  0  0  0  0  0  0  0
   10.1036   46.3543  135.8178 C   0  0  0  0  0  0  0  0  0  0  0  0
    9.8729   45.1863  134.9759 N   0  0  0  0  0  0  0  0  0  0  0  0
    8.8474   45.2673  133.9721 C   0  0  0  0  0  0  0  0  0  0  0  0
   10.6166   44.0072  135.1346 C   0  0  0  0  0  0  0  0  0  0  0  0
   11.5170   44.0204  136.0473 O   0  0  0  0  0  0  0  0  0  0  0  0
   10.4800   42.7791  134.3846 C   0  0  0  0  0  0  0  0  0  0  0  0
   10.6124   42.7449  133.0605 C   0  0  0  0  0  0  0  0  0  0  0  0
    9.3264   44.0169  128.8170 C   0  0  0  0  0  0  0  0  0  0  0  0
    8.9311   44.0119  127.5081 C   0  0  0  0  0  0  0  0  0  0  0  0
    9.1328   42.9193  126.6595 C   0  0  0  0  0  0  0  0  0  0  0  0
    9.7568   41.7826  127.1390 C   0  0  0  0  0  0  0  0  0  0  0  0
   10.1617   41.7707  128.4513 C   0  0  0  0  0  0  0  0  0  0  0  0
    9.9608   42.8491  129.2842 C   0  0  0  0  0  0  0  0  0  0  0  0
    9.9460   40.7216  126.2959 O   0  0  0  0  0  0  0  0  0  0  0  0
   11.1114   40.0024  126.1872 C   0  0  0  0  0  0  0  0  0  0  0  0
   12.1098   40.4068  125.3396 C   0  0  0  0  0  0  0  0  0  0  0  0
   13.2914   39.6670  125.2378 C   0  0  0  0  0  0  0  0  0  0  0  0
   13.4830   38.5133  125.9858 C   0  0  0  0  0  0  0  0  0  0  0  0
   12.4720   38.1191  126.8327 C   0  0  0  0  0  0  0  0  0  0  0  0
   11.2993   38.8526  126.9344 C   0  0  0  0  0  0  0  0  0  0  0  0
    9.2246   47.3585  127.2819 N   0  0  0  0  0  0  0  0  0  0  0  0
    8.3132   47.0471  128.2964 C   0  0  0  0  0  0  0  0  0  0  0  0
    7.1166   47.3679  128.0974 O   0  0  0  0  0  0  0  0  0  0  0  0
    9.6581   46.6870  126.6084 H   0  0  0  0  0  0  0  0  0  0  0  0
    9.5369   48.3658  127.1425 H   0  0  0  0  0  0  0  0  0  0  0  0
 32 33  1  0  0  0
 33 34  2  0  0  0
 33  1  1  0  0  0
  1  2  2  0  0  0
  2  3  1  0  0  0
  2  4  1  0  0  0
  4  5  1  0  0  0
  5  6  2  0  0  0
  6 19  1  0  0  0
 19 20  2  0  0  0
 20 21  1  0  0  0
 21 22  2  0  0  0
 22 25  1  0  0  0
 25 26  1  0  0  0
 26 27  2  0  0  0
 27 28  1  0  0  0
 28 29  2  0  0  0
 29 30  1  0  0  0
 30 31  2  0  0  0
 22 23  1  0  0  0
 23 24  2  0  0  0
  4  9  1  0  0  0
  9 10  1  0  0  0
 10 11  1  0  0  0
 11 12  1  0  0  0
 12 13  1  0  0  0
 13 14  1  0  0  0
 13 15  1  0  0  0
 15 16  2  0  0  0
 15 17  1  0  0  0
 17 18  2  0  0  0
  6  1  1  0  0  0
 24 19  1  0  0  0
 14  9  1  0  0  0
 31 26  1  0  0  0
 32 35  1  0  0  0
 32 36  1  0  0  0
  3  7  1  0  0  0
  3  8  1  0  0  0
M  END
> <minimizedAffinity>
22.23250

> <CNNscore>
0.4474101067

> <CNNaffinity>
7.3712949753

> <CNN_VS>
3.2979917526

> <CNNaffinity_variance>
1.1480330229

$$$$
[H]C([H])=C([H])C(=O)N1C([H])([H])C([H])([H])C([H])([H])C([H])(n2nc(-c3c([H])c([H])c(Oc4c([H])c([H])c([H])c([H])c4[H])c([H])c3[H])c(C(=O)N([H])[H])c2N([H])[H])C1([H])[H]


 36 39  0  0  0  0  0  0  0  0999 V2000
    9.5945   45.2561  130.4766 C   0  0  0  0  0  0  0  0  0  0  0  0
    8.7311   45.8995  129.5566 C   0  0  0  0  0  0  0  0  0  0  0  0
    7.8501   45.2480  128.6459 N   0  0  0  0  0  0  0  0  0  0  0  0
    8.9261   47.2134  129.7320 N   0  0  0  0  0  0  0  0  0  0  0  0
    9.8108   47.4155  130.6538 N   0  0  0  0  0  0  0  0  0  0  0  0
   10.2736   46.2280  131.1637 C   0  0  0  0  0  0  0  0  0  0  0  0
    6.9464   44.8134  128.9235 H   0  0  0  0  0  0  0  0  0  0  0  0
    8.1237   45.2012  127.6388 H   0  0  0  0  0  0  0  0  0  0  0  0
    8.1806   48.2026  128.9314 C   0  0  0  0  0  0  0  0  0  0  0  0
    7.9362   49.4434  129.7180 C   0  0  0  0  0  0  0  0  0  0  0  0
    7.2485   50.4652  128.8181 C   0  0  0  0  0  0  0  0  0  0  0  0
    5.9322   49.9230  128.3189 C   0  0  0  0  0  0  0  0  0  0  0  0
    5.8005   48.5378  128.7550 N   0  0  0  0  0  0  0  0  0  0  0  0
    6.8737   47.6294  128.4571 C   0  0  0  0  0  0  0  0  0  0  0  0
    4.6614   48.0877  129.4394 C   0  0  0  0  0  0  0  0  0  0  0  0
    3.7539   48.9630  129.6721 O   0  0  0  0  0  0  0  0  0  0  0  0
    4.3965   46.7469  129.9102 C   0  0  0  0  0  0  0  0  0  0  0  0
    3.1567   46.2890  130.0686 C   0  0  0  0  0  0  0  0  0  0  0  0
   11.2477   46.0976  132.2292 C   0  0  0  0  0  0  0  0  0  0  0  0
   10.9566   45.9347  133.5552 C   0  0  0  0  0  0  0  0  0  0  0  0
   11.9426   45.8440  134.5422 C   0  0  0  0  0  0  0  0  0  0  0  0
   13.2772   45.9188  134.1893 C   0  0  0  0  0  0  0  0  0  0  0  0
   13.5880   46.0811  132.8614 C   0  0  0  0  0  0  0  0  0  0  0  0
   12.6136   46.1703  131.8921 C   0  0  0  0  0  0  0  0  0  0  0  0
   14.2301   45.8291  135.1673 O   0  0  0  0  0  0  0  0  0  0  0  0
   14.5581   46.8382  136.0398 C   0  0  0  0  0  0  0  0  0  0  0  0
   13.8330   48.0010  136.0736 C   0  0  0  0  0  0  0  0  0  0  0  0
   14.1760   49.0205  136.9661 C   0  0  0  0  0  0  0  0  0  0  0  0
   15.2508   48.8836  137.8340 C   0  0  0  0  0  0  0  0  0  0  0  0
   15.9701   47.7108  137.7890 C   0  0  0  0  0  0  0  0  0  0  0  0
   15.6303   46.6986  136.9038 C   0  0  0  0  0  0  0  0  0  0  0  0
    9.6500   43.1494  131.8280 N   0  0  0  0  0  0  0  0  0  0  0  0
    9.6332   43.8149  130.5976 C   0  0  0  0  0  0  0  0  0  0  0  0
    9.6496   43.0975  129.5683 O   0  0  0  0  0  0  0  0  0  0  0  0
    8.8427   43.0303  132.4811 H   0  0  0  0  0  0  0  0  0  0  0  0
   10.5510   42.7031  132.1755 H   0  0  0  0  0  0  0  0  0  0  0  0
 32 33  1  0  0  0
 33 34  2  0  0  0
 33  1  1  0  0  0
  1  2  2  0  0  0
  2  3  1  0  0  0
  2  4  1  0  0  0
  4  5  1  0  0  0
  5  6  2  0  0  0
  6 19  1  0  0  0
 19 20  2  0  0  0
 20 21  1  0  0  0
 21 22  2  0  0  0
 22 25  1  0  0  0
 25 26  1  0  0  0
 26 27  2  0  0  0
 27 28  1  0  0  0
 28 29  2  0  0  0
 29 30  1  0  0  0
 30 31  2  0  0  0
 22 23  1  0  0  0
 23 24  2  0  0  0
  4  9  1  0  0  0
  9 10  1  0  0  0
 10 11  1  0  0  0
 11 12  1  0  0  0
 12 13  1  0  0  0
 13 14  1  0  0  0
 13 15  1  0  0  0
 15 16  2  0  0  0
 15 17  1  0  0  0
 17 18  2  0  0  0
  6  1  1  0  0  0
 24 19  1  0  0  0
 14  9  1  0  0  0
 31 26  1  0  0  0
 32 35  1  0  0  0
 32 36  1  0  0  0
  3  7  1  0  0  0
  3  8  1  0  0  0
M  END
> <minimizedAffinity>
19.15226

> <CNNscore>
0.4442035258

> <CNNaffinity>
7.2839622498

> <CNN_VS>
3.2355616093

> <CNNaffinity_variance>
1.2062468529

$$$$
[H]C([H])=C([H])C(=O)N1C([H])([H])C([H])([H])C([H])([H])C([H])(n2nc(-c3c([H])c([H])c(Oc4c([H])c([H])c([H])c([H])c4[H])c([H])c3[H])c(C(=O)N([H])[H])c2N([H])[H])C1([H])[H]


 36 39  0  0  0  0  0  0  0  0999 V2000
   10.0278   48.2827  132.7205 C   0  0  0  0  0  0  0  0  0  0  0  0
    9.7839   49.4591  131.9704 C   0  0  0  0  0  0  0  0  0  0  0  0
   10.3908   50.7290  132.1924 N   0  0  0  0  0  0  0  0  0  0  0  0
    8.8840   49.1168  131.0387 N   0  0  0  0  0  0  0  0  0  0  0  0
    8.5694   47.8678  131.1577 N   0  0  0  0  0  0  0  0  0  0  0  0
    9.2507   47.2832  132.1961 C   0  0  0  0  0  0  0  0  0  0  0  0
   11.3659   50.9623  131.9146 H   0  0  0  0  0  0  0  0  0  0  0  0
    9.8271   51.4727  132.6618 H   0  0  0  0  0  0  0  0  0  0  0  0
    8.3911   50.1069  130.0629 C   0  0  0  0  0  0  0  0  0  0  0  0
    7.4443   51.0586  130.7077 C   0  0  0  0  0  0  0  0  0  0  0  0
    7.0389   52.1140  129.6838 C   0  0  0  0  0  0  0  0  0  0  0  0
    6.3658   51.4652  128.4998 C   0  0  0  0  0  0  0  0  0  0  0  0
    6.4360   50.0171  128.6566 N   0  0  0  0  0  0  0  0  0  0  0  0
    7.7222   49.4244  128.9017 C   0  0  0  0  0  0  0  0  0  0  0  0
    5.2910   49.2114  128.5650 C   0  0  0  0  0  0  0  0  0  0  0  0
    4.1824   49.8193  128.3521 O   0  0  0  0  0  0  0  0  0  0  0  0
    5.2222   47.7723  128.6827 C   0  0  0  0  0  0  0  0  0  0  0  0
    5.3278   47.1567  129.8583 C   0  0  0  0  0  0  0  0  0  0  0  0
    9.1530   45.8893  132.5820 C   0  0  0  0  0  0  0  0  0  0  0  0
    8.7373   45.4305  133.8011 C   0  0  0  0  0  0  0  0  0  0  0  0
    8.6924   44.0710  134.1243 C   0  0  0  0  0  0  0  0  0  0  0  0
    9.0791   43.1291  133.1892 C   0  0  0  0  0  0  0  0  0  0  0  0
    9.4984   43.5722  131.9587 C   0  0  0  0  0  0  0  0  0  0  0  0
    9.5415   44.9125  131.6443 C   0  0  0  0  0  0  0  0  0  0  0  0
    9.0301   41.8026  133.5214 O   0  0  0  0  0  0  0  0  0  0  0  0
    7.9443   41.1715  134.0780 C   0  0  0  0  0  0  0  0  0  0  0  0
    8.1002   40.2892  135.1154 C   0  0  0  0  0  0  0  0  0  0  0  0
    6.9878   39.6535  135.6740 C   0  0  0  0  0  0  0  0  0  0  0  0
    5.7070   39.8967  135.1969 C   0  0  0  0  0  0  0  0  0  0  0  0
    5.5653   40.7848  134.1548 C   0  0  0  0  0  0  0  0  0  0  0  0
    6.6686   41.4162  133.6001 C   0  0  0  0  0  0  0  0  0  0  0  0
   11.6861   47.1140  134.1873 N   0  0  0  0  0  0  0  0  0  0  0  0
   10.9831   48.2621  133.8068 C   0  0  0  0  0  0  0  0  0  0  0  0
   11.2185   49.3089  134.4574 O   0  0  0  0  0  0  0  0  0  0  0  0
   12.4871   46.6781  133.6766 H   0  0  0  0  0  0  0  0  0  0  0  0
   11.4157   46.5994  135.0782 H   0  0  0  0  0  0  0  0  0  0  0  0
 32 33  1  0  0  0
 33 34  2  0  0  0
 33  1  1  0  0  0
  1  2  2  0  0  0
  2  3  1  0  0  0
  2  4  1  0  0  0
  4  5  1  0  0  0
  5  6  2  0  0  0
  6 19  1  0  0  0
 19 20  2  0  0  0
 20 21  1  0  0  0
 21 22  2  0  0  0
 22 25  1  0  0  0
 25 26  1  0  0  0
 26 27  2  0  0  0
 27 28  1  0  0  0
 28 29  2  0  0  0
 29 30  1  0  0  0
 30 31  2  0  0  0
 22 23  1  0  0  0
 23 24  2  0  0  0
  4  9  1  0  0  0
  9 10  1  0  0  0
 10 11  1  0  0  0
 11 12  1  0  0  0
 12 13  1  0  0  0
 13 14  1  0  0  0
 13 15  1  0  0  0
 15 16  2  0  0  0
 15 17  1  0  0  0
 17 18  2  0  0  0
  6  1  1  0  0  0
 24 19  1  0  0  0
 14  9  1  0  0  0
 31 26  1  0  0  0
 32 35  1  0  0  0
 32 36  1  0  0  0
  3  7  1  0  0  0
  3  8  1  0  0  0
M  END
> <minimizedAffinity>
25.30966

> <CNNscore>
0.4408320487

> <CNNaffinity>
7.2126092911

> <CNN_VS>
3.1795492172

> <CNNaffinity_variance>
1.4541889429

$$$$
[H]C([H])=C([H])C(=O)N1C([H])([H])C([H])([H])C([H])([H])C([H])(n2nc(-c3c([H])c([H])c(Oc4c([H])c([H])c([H])c([H])c4[H])c([H])c3[H])c(C(=O)N([H])[H])c2N([H])[H])C1([H])[H]


 36 39  0  0  0  0  0  0  0  0999 V2000
   10.0670   47.9139  133.0091 C   0  0  0  0  0  0  0  0  0  0  0  0
    9.6178   49.1267  132.4319 C   0  0  0  0  0  0  0  0  0  0  0  0
    9.6140   50.4010  133.0694 N   0  0  0  0  0  0  0  0  0  0  0  0
    9.2116   48.8126  131.1944 N   0  0  0  0  0  0  0  0  0  0  0  0
    9.3707   47.5472  130.9788 N   0  0  0  0  0  0  0  0  0  0  0  0
    9.9030   46.9214  132.0785 C   0  0  0  0  0  0  0  0  0  0  0  0
   10.4652   50.9835  133.2066 H   0  0  0  0  0  0  0  0  0  0  0  0
    8.7051   50.7766  133.4217 H   0  0  0  0  0  0  0  0  0  0  0  0
    8.6756   49.8460  130.2888 C   0  0  0  0  0  0  0  0  0  0  0  0
    7.7390   50.7494  131.0130 C   0  0  0  0  0  0  0  0  0  0  0  0
    7.2881   51.8517  130.0599 C   0  0  0  0  0  0  0  0  0  0  0  0
    6.5847   51.2572  128.8651 C   0  0  0  0  0  0  0  0  0  0  0  0
    6.6772   49.8040  128.9424 N   0  0  0  0  0  0  0  0  0  0  0  0
    7.9776   49.2166  129.1148 C   0  0  0  0  0  0  0  0  0  0  0  0
    5.5395   48.9887  128.8445 C   0  0  0  0  0  0  0  0  0  0  0  0
    4.4174   49.5919  128.6995 O   0  0  0  0  0  0  0  0  0  0  0  0
    5.4917   47.5447  128.8877 C   0  0  0  0  0  0  0  0  0  0  0  0
    5.9132   46.8582  129.9475 C   0  0  0  0  0  0  0  0  0  0  0  0
   10.2338   45.5125  132.1616 C   0  0  0  0  0  0  0  0  0  0  0  0
    9.6930   44.6210  133.0460 C   0  0  0  0  0  0  0  0  0  0  0  0
   10.0752   43.2771  133.0970 C   0  0  0  0  0  0  0  0  0  0  0  0
   11.0390   42.8032  132.2265 C   0  0  0  0  0  0  0  0  0  0  0  0
   11.5921   43.6847  131.3302 C   0  0  0  0  0  0  0  0  0  0  0  0
   11.2131   45.0080  131.2834 C   0  0  0  0  0  0  0  0  0  0  0  0
   11.4025   41.4855  132.2897 O   0  0  0  0  0  0  0  0  0  0  0  0
   10.9827   40.5117  131.4164 C   0  0  0  0  0  0  0  0  0  0  0  0
   11.4398   39.2242  131.5274 C   0  0  0  0  0  0  0  0  0  0  0  0
   11.0051   38.2418  130.6332 C   0  0  0  0  0  0  0  0  0  0  0  0
   10.1070   38.5416  129.6179 C   0  0  0  0  0  0  0  0  0  0  0  0
    9.6565   39.8386  129.5182 C   0  0  0  0  0  0  0  0  0  0  0  0
   10.0872   40.8139  130.4053 C   0  0  0  0  0  0  0  0  0  0  0  0
   10.0690   47.0934  135.3743 N   0  0  0  0  0  0  0  0  0  0  0  0
   10.6157   47.8698  134.3470 C   0  0  0  0  0  0  0  0  0  0  0  0
   11.6333   48.5464  134.6321 O   0  0  0  0  0  0  0  0  0  0  0  0
   10.1413   46.0555  135.4745 H   0  0  0  0  0  0  0  0  0  0  0  0
    9.5172   47.5611  136.1543 H   0  0  0  0  0  0  0  0  0  0  0  0
 32 33  1  0  0  0
 33 34  2  0  0  0
 33  1  1  0  0  0
  1  2  2  0  0  0
  2  3  1  0  0  0
  2  4  1  0  0  0
  4  5  1  0  0  0
  5  6  2  0  0  0
  6 19  1  0  0  0
 19 20  2  0  0  0
 20 21  1  0  0  0
 21 22  2  0  0  0
 22 25  1  0  0  0
 25 26  1  0  0  0
 26 27  2  0  0  0
 27 28  1  0  0  0
 28 29  2  0  0  0
 29 30  1  0  0  0
 30 31  2  0  0  0
 22 23  1  0  0  0
 23 24  2  0  0  0
  4  9  1  0  0  0
  9 10  1  0  0  0
 10 11  1  0  0  0
 11 12  1  0  0  0
 12 13  1  0  0  0
 13 14  1  0  0  0
 13 15  1  0  0  0
 15 16  2  0  0  0
 15 17  1  0  0  0
 17 18  2  0  0  0
  6  1  1  0  0  0
 24 19  1  0  0  0
 14  9  1  0  0  0
 31 26  1  0  0  0
 32 35  1  0  0  0
 32 36  1  0  0  0
  3  7  1  0  0  0
  3  8  1  0  0  0
M  END
> <minimizedAffinity>
18.53037

> <CNNscore>
0.4203936756

> <CNNaffinity>
7.4270830154

> <CNN_VS>
3.1222987175

> <CNNaffinity_variance>
1.1754440069

$$$$
[H]C([H])=C([H])C(=O)N1C([H])([H])C([H])([H])C([H])([H])C([H])(n2nc(-c3c([H])c([H])c(Oc4c([H])c([H])c([H])c([H])c4[H])c([H])c3[H])c(C(=O)N([H])[H])c2N([H])[H])C1([H])[H]


 36 39  0  0  0  0  0  0  0  0999 V2000
   10.6779   45.9568  129.4527 C   0  0  0  0  0  0  0  0  0  0  0  0
   10.4210   47.2378  128.9060 C   0  0  0  0  0  0  0  0  0  0  0  0
   11.0484   47.7921  127.7531 N   0  0  0  0  0  0  0  0  0  0  0  0
    9.4873   47.7891  129.6930 N   0  0  0  0  0  0  0  0  0  0  0  0
    9.1662   46.9742  130.6448 N   0  0  0  0  0  0  0  0  0  0  0  0
    9.8777   45.8038  130.5547 C   0  0  0  0  0  0  0  0  0  0  0  0
   10.8128   47.5196  126.7769 H   0  0  0  0  0  0  0  0  0  0  0  0
   11.7896   48.5152  127.8912 H   0  0  0  0  0  0  0  0  0  0  0  0
    8.9688   49.1422  129.4183 C   0  0  0  0  0  0  0  0  0  0  0  0
    8.6382   49.8494  130.6866 C   0  0  0  0  0  0  0  0  0  0  0  0
    8.1977   51.2711  130.3532 C   0  0  0  0  0  0  0  0  0  0  0  0
    6.9804   51.2481  129.4624 C   0  0  0  0  0  0  0  0  0  0  0  0
    6.6922   49.8657  129.0988 N   0  0  0  0  0  0  0  0  0  0  0  0
    7.7541   49.0789  128.5339 C   0  0  0  0  0  0  0  0  0  0  0  0
    5.4178   49.3080  129.2812 C   0  0  0  0  0  0  0  0  0  0  0  0
    4.5293   50.0746  129.7977 O   0  0  0  0  0  0  0  0  0  0  0  0
    4.9946   47.9659  128.9505 C   0  0  0  0  0  0  0  0  0  0  0  0
    5.5531   46.8944  129.5090 C   0  0  0  0  0  0  0  0  0  0  0  0
    9.7387   44.6689  131.4458 C   0  0  0  0  0  0  0  0  0  0  0  0
   10.3428   43.4531  131.2829 C   0  0  0  0  0  0  0  0  0  0  0  0
   10.1460   42.3848  132.1630 C   0  0  0  0  0  0  0  0  0  0  0  0
    9.3101   42.5378  133.2534 C   0  0  0  0  0  0  0  0  0  0  0  0
    8.6959   43.7530  133.4334 C   0  0  0  0  0  0  0  0  0  0  0  0
    8.8921   44.8029  132.5637 C   0  0  0  0  0  0  0  0  0  0  0  0
    9.1274   41.4824  134.1050 O   0  0  0  0  0  0  0  0  0  0  0  0
    7.9061   41.0053  134.5146 C   0  0  0  0  0  0  0  0  0  0  0  0
    7.8012   40.1985  135.6178 C   0  0  0  0  0  0  0  0  0  0  0  0
    6.5529   39.7195  136.0252 C   0  0  0  0  0  0  0  0  0  0  0  0
    5.3966   40.0454  135.3294 C   0  0  0  0  0  0  0  0  0  0  0  0
    5.5170   40.8563  134.2236 C   0  0  0  0  0  0  0  0  0  0  0  0
    6.7552   41.3321  133.8187 C   0  0  0  0  0  0  0  0  0  0  0  0
   12.8996   44.8072  129.3527 N   0  0  0  0  0  0  0  0  0  0  0  0
   11.6206   45.0470  128.8391 C   0  0  0  0  0  0  0  0  0  0  0  0
   11.3058   44.4239  127.7964 O   0  0  0  0  0  0  0  0  0  0  0  0
   13.1332   44.2382  130.1977 H   0  0  0  0  0  0  0  0  0  0  0  0
   13.7504   45.2237  128.8687 H   0  0  0  0  0  0  0  0  0  0  0  0
 32 33  1  0  0  0
 33 34  2  0  0  0
 33  1  1  0  0  0
  1  2  2  0  0  0
  2  3  1  0  0  0
  2  4  1  0  0  0
  4  5  1  0  0  0
  5  6  2  0  0  0
  6 19  1  0  0  0
 19 20  2  0  0  0
 20 21  1  0  0  0
 21 22  2  0  0  0
 22 25  1  0  0  0
 25 26  1  0  0  0
 26 27  2  0  0  0
 27 28  1  0  0  0
 28 29  2  0  0  0
 29 30  1  0  0  0
 30 31  2  0  0  0
 22 23  1  0  0  0
 23 24  2  0  0  0
  4  9  1  0  0  0
  9 10  1  0  0  0
 10 11  1  0  0  0
 11 12  1  0  0  0
 12 13  1  0  0  0
 13 14  1  0  0  0
 13 15  1  0  0  0
 15 16  2  0  0  0
 15 17  1  0  0  0
 17 18  2  0  0  0
  6  1  1  0  0  0
 24 19  1  0  0  0
 14  9  1  0  0  0
 31 26  1  0  0  0
 32 35  1  0  0  0
 32 36  1  0  0  0
  3  7  1  0  0  0
  3  8  1  0  0  0
M  END
> <minimizedAffinity>
21.48869

> <CNNscore>
0.4127229452

> <CNNaffinity>
7.4454793930

> <CNN_VS>
3.0729200840

> <CNNaffinity_variance>
0.8232930899

$$$$
[H]C([H])=C([H])C(=O)N1C([H])([H])C([H])([H])C([H])([H])C([H])(n2nc(-c3c([H])c([H])c(Oc4c([H])c([H])c([H])c([H])c4[H])c([H])c3[H])c(C(=O)N([H])[H])c2N([H])[H])C1([H])[H]


 36 39  0  0  0  0  0  0  0  0999 V2000
    9.7152   44.6924  130.3972 C   0  0  0  0  0  0  0  0  0  0  0  0
    8.5198   45.0770  129.7421 C   0  0  0  0  0  0  0  0  0  0  0  0
    7.9050   44.3861  128.6582 N   0  0  0  0  0  0  0  0  0  0  0  0
    8.1147   46.1987  130.3526 N   0  0  0  0  0  0  0  0  0  0  0  0
    8.9408   46.5187  131.2951 N   0  0  0  0  0  0  0  0  0  0  0  0
    9.9710   45.6153  131.3773 C   0  0  0  0  0  0  0  0  0  0  0  0
    7.3583   43.5074  128.7658 H   0  0  0  0  0  0  0  0  0  0  0  0
    8.0067   44.7815  127.6966 H   0  0  0  0  0  0  0  0  0  0  0  0
    6.8825   46.8888  129.9276 C   0  0  0  0  0  0  0  0  0  0  0  0
    6.9350   47.2188  128.4763 C   0  0  0  0  0  0  0  0  0  0  0  0
    5.6045   47.8434  128.0685 C   0  0  0  0  0  0  0  0  0  0  0  0
    5.3524   49.1037  128.8583 C   0  0  0  0  0  0  0  0  0  0  0  0
    6.4062   49.2503  129.8554 N   0  0  0  0  0  0  0  0  0  0  0  0
    6.6680   48.1414  130.7317 C   0  0  0  0  0  0  0  0  0  0  0  0
    7.1465   50.4363  129.9739 C   0  0  0  0  0  0  0  0  0  0  0  0
    6.8555   51.3739  129.1492 O   0  0  0  0  0  0  0  0  0  0  0  0
    8.1996   50.7192  130.9228 C   0  0  0  0  0  0  0  0  0  0  0  0
    9.2320   49.8965  131.0940 C   0  0  0  0  0  0  0  0  0  0  0  0
   11.0507   45.6626  132.3435 C   0  0  0  0  0  0  0  0  0  0  0  0
   11.0011   45.1608  133.6144 C   0  0  0  0  0  0  0  0  0  0  0  0
   12.0680   45.2632  134.5120 C   0  0  0  0  0  0  0  0  0  0  0  0
   13.2353   45.8937  134.1231 C   0  0  0  0  0  0  0  0  0  0  0  0
   13.3031   46.4026  132.8493 C   0  0  0  0  0  0  0  0  0  0  0  0
   12.2496   46.2999  131.9680 C   0  0  0  0  0  0  0  0  0  0  0  0
   14.2700   45.9863  135.0137 O   0  0  0  0  0  0  0  0  0  0  0  0
   14.4514   47.0173  135.9032 C   0  0  0  0  0  0  0  0  0  0  0  0
   13.6080   48.0978  135.9076 C   0  0  0  0  0  0  0  0  0  0  0  0
   13.8023   49.1406  136.8177 C   0  0  0  0  0  0  0  0  0  0  0  0
   14.8456   49.1098  137.7332 C   0  0  0  0  0  0  0  0  0  0  0  0
   15.6847   48.0186  137.7174 C   0  0  0  0  0  0  0  0  0  0  0  0
   15.4924   46.9834  136.8147 C   0  0  0  0  0  0  0  0  0  0  0  0
   10.5914   42.3981  130.8826 N   0  0  0  0  0  0  0  0  0  0  0  0
   10.4298   43.4909  130.0244 C   0  0  0  0  0  0  0  0  0  0  0  0
   10.9384   43.3906  128.8818 O   0  0  0  0  0  0  0  0  0  0  0  0
    9.8593   41.6991  131.1433 H   0  0  0  0  0  0  0  0  0  0  0  0
   11.5357   42.2189  131.3386 H   0  0  0  0  0  0  0  0  0  0  0  0
 32 33  1  0  0  0
 33 34  2  0  0  0
 33  1  1  0  0  0
  1  2  2  0  0  0
  2  3  1  0  0  0
  2  4  1  0  0  0
  4  5  1  0  0  0
  5  6  2  0  0  0
  6 19  1  0  0  0
 19 20  2  0  0  0
 20 21  1  0  0  0
 21 22  2  0  0  0
 22 25  1  0  0  0
 25 26  1  0  0  0
 26 27  2  0  0  0
 27 28  1  0  0  0
 28 29  2  0  0  0
 29 30  1  0  0  0
 30 31  2  0  0  0
 22 23  1  0  0  0
 23 24  2  0  0  0
  4  9  1  0  0  0
  9 10  1  0  0  0
 10 11  1  0  0  0
 11 12  1  0  0  0
 12 13  1  0  0  0
 13 14  1  0  0  0
 13 15  1  0  0  0
 15 16  2  0  0  0
 15 17  1  0  0  0
 17 18  2  0  0  0
  6  1  1  0  0  0
 24 19  1  0  0  0
 14  9  1  0  0  0
 31 26  1  0  0  0
 32 35  1  0  0  0
 32 36  1  0  0  0
  3  7  1  0  0  0
  3  8  1  0  0  0
M  END
> <minimizedAffinity>
12.55838

> <CNNscore>
0.3652897775

> <CNNaffinity>
7.4069824219

> <CNN_VS>
2.7056949139

> <CNNaffinity_variance>
1.2048597336

$$$$
[H]C([H])=C([H])C(=O)N1C([H])([H])C([H])([H])C([H])([H])C([H])(n2nc(-c3c([H])c([H])c(Oc4c([H])c([H])c([H])c([H])c4[H])c([H])c3[H])c(C(=O)N([H])[H])c2N([H])[H])C1([H])[H]


 36 39  0  0  0  0  0  0  0  0999 V2000
    8.6014   46.0133  128.7562 C   0  0  0  0  0  0  0  0  0  0  0  0
    7.9958   47.1999  128.2757 C   0  0  0  0  0  0  0  0  0  0  0  0
    7.8283   47.5534  126.9056 N   0  0  0  0  0  0  0  0  0  0  0  0
    7.6303   47.8891  129.3650 N   0  0  0  0  0  0  0  0  0  0  0  0
    7.9552   47.2397  130.4354 N   0  0  0  0  0  0  0  0  0  0  0  0
    8.5706   46.0524  130.1257 C   0  0  0  0  0  0  0  0  0  0  0  0
    7.1044   47.1387  126.2838 H   0  0  0  0  0  0  0  0  0  0  0  0
    8.4682   48.2708  126.4967 H   0  0  0  0  0  0  0  0  0  0  0  0
    6.9569   49.1956  129.2431 C   0  0  0  0  0  0  0  0  0  0  0  0
    7.6525   50.0583  128.2482 C   0  0  0  0  0  0  0  0  0  0  0  0
    6.8655   51.3554  128.0909 C   0  0  0  0  0  0  0  0  0  0  0  0
    6.7823   52.0821  129.4103 C   0  0  0  0  0  0  0  0  0  0  0  0
    7.3732   51.2424  130.4456 N   0  0  0  0  0  0  0  0  0  0  0  0
    6.8983   49.8920  130.5748 C   0  0  0  0  0  0  0  0  0  0  0  0
    8.3716   51.7268  131.3041 C   0  0  0  0  0  0  0  0  0  0  0  0
    8.7440   52.9394  131.1174 O   0  0  0  0  0  0  0  0  0  0  0  0
    9.0260   51.0117  132.3764 C   0  0  0  0  0  0  0  0  0  0  0  0
    9.7551   49.9207  132.1522 C   0  0  0  0  0  0  0  0  0  0  0  0
    9.0332   45.0730  131.0892 C   0  0  0  0  0  0  0  0  0  0  0  0
    8.2346   44.2231  131.8029 C   0  0  0  0  0  0  0  0  0  0  0  0
    8.7388   43.3184  132.7419 C   0  0  0  0  0  0  0  0  0  0  0  0
   10.0998   43.2597  132.9778 C   0  0  0  0  0  0  0  0  0  0  0  0
   10.9171   44.1055  132.2687 C   0  0  0  0  0  0  0  0  0  0  0  0
   10.4164   44.9957  131.3447 C   0  0  0  0  0  0  0  0  0  0  0  0
   10.5773   42.3693  133.9005 O   0  0  0  0  0  0  0  0  0  0  0  0
   11.4301   42.6857  134.9299 C   0  0  0  0  0  0  0  0  0  0  0  0
   12.6794   43.1901  134.6773 C   0  0  0  0  0  0  0  0  0  0  0  0
   13.5381   43.5089  135.7330 C   0  0  0  0  0  0  0  0  0  0  0  0
   13.1519   43.3245  137.0536 C   0  0  0  0  0  0  0  0  0  0  0  0
   11.8947   42.8172  137.2925 C   0  0  0  0  0  0  0  0  0  0  0  0
   11.0419   42.5008  136.2455 C   0  0  0  0  0  0  0  0  0  0  0  0
    8.6363   43.6753  127.8617 N   0  0  0  0  0  0  0  0  0  0  0  0
    9.0958   44.9966  127.8535 C   0  0  0  0  0  0  0  0  0  0  0  0
    9.9773   45.2817  127.0072 O   0  0  0  0  0  0  0  0  0  0  0  0
    7.7172   43.3348  127.4987 H   0  0  0  0  0  0  0  0  0  0  0  0
    9.2483   42.9051  128.2666 H   0  0  0  0  0  0  0  0  0  0  0  0
 32 33  1  0  0  0
 33 34  2  0  0  0
 33  1  1  0  0  0
  1  2  2  0  0  0
  2  3  1  0  0  0
  2  4  1  0  0  0
  4  5  1  0  0  0
  5  6  2  0  0  0
  6 19  1  0  0  0
 19 20  2  0  0  0
 20 21  1  0  0  0
 21 22  2  0  0  0
 22 25  1  0  0  0
 25 26  1  0  0  0
 26 27  2  0  0  0
 27 28  1  0  0  0
 28 29  2  0  0  0
 29 30  1  0  0  0
 30 31  2  0  0  0
 22 23  1  0  0  0
 23 24  2  0  0  0
  4  9  1  0  0  0
  9 10  1  0  0  0
 10 11  1  0  0  0
 11 12  1  0  0  0
 12 13  1  0  0  0
 13 14  1  0  0  0
 13 15  1  0  0  0
 15 16  2  0  0  0
 15 17  1  0  0  0
 17 18  2  0  0  0
  6  1  1  0  0  0
 24 19  1  0  0  0
 14  9  1  0  0  0
 31 26  1  0  0  0
 32 35  1  0  0  0
 32 36  1  0  0  0
  3  7  1  0  0  0
  3  8  1  0  0  0
M  END
> <minimizedAffinity>
34.74899

> <CNNscore>
0.3337353766

> <CNNaffinity>
7.2404723167

> <CNN_VS>
2.4164018631

> <CNNaffinity_variance>
1.0910422802

$$$$
[H]c1c([H])c([H])c(-c2c(-c3c([H])c([H])c([H])c([H])c3OC([H])([H])[H])nc(C3([H])C([H])([H])C([H])([H])N(C(=O)c4c([H])c(OC([H])([H])[H])c(OC([H])([H])[H])c(OC([H])([H])[H])c4[H])C([H])([H])C3([H])[H])n2[H])c([H])c1[H]


 40 44  0  0  0  0  0  0  0  0999 V2000
    6.0188   51.7244  128.8830 C   0  0  0  0  0  0  0  0  0  0  0  0
    5.2600   52.3688  129.7496 O   0  0  0  0  0  0  0  0  0  0  0  0
    6.2774   50.4118  129.2633 N   0  0  0  0  0  0  0  0  0  0  0  0
    5.7118   49.9659  130.5736 C   0  0  0  0  0  0  0  0  0  0  0  0
    6.7800   49.1065  131.2029 C   0  0  0  0  0  0  0  0  0  0  0  0
    6.8150   47.7738  130.4382 C   0  0  0  0  0  0  0  0  0  0  0  0
    6.6471   48.0055  128.9787 C   0  0  0  0  0  0  0  0  0  0  0  0
    6.9895   49.4347  128.5303 C   0  0  0  0  0  0  0  0  0  0  0  0
    7.9634   53.2250  126.0138 C   0  0  0  0  0  0  0  0  0  0  0  0
    7.6756   52.5026  127.1690 C   0  0  0  0  0  0  0  0  0  0  0  0
    6.4338   52.4724  127.7234 C   0  0  0  0  0  0  0  0  0  0  0  0
    5.4428   53.2185  127.0643 C   0  0  0  0  0  0  0  0  0  0  0  0
    5.7256   53.9261  125.9312 C   0  0  0  0  0  0  0  0  0  0  0  0
    6.9954   53.9495  125.3738 C   0  0  0  0  0  0  0  0  0  0  0  0
    9.5789   54.2965  124.5804 C   0  0  0  0  0  0  0  0  0  0  0  0
    9.2582   53.2324  125.4662 O   0  0  0  0  0  0  0  0  0  0  0  0
    4.7291   54.6539  125.3013 O   0  0  0  0  0  0  0  0  0  0  0  0
    3.4335   54.1481  125.2063 C   0  0  0  0  0  0  0  0  0  0  0  0
    7.3109   54.6588  124.2268 O   0  0  0  0  0  0  0  0  0  0  0  0
    6.9430   54.0462  122.9820 C   0  0  0  0  0  0  0  0  0  0  0  0
    8.0853   47.0692  130.7082 C   0  0  0  0  0  0  0  0  0  0  0  0
    8.9483   46.5907  129.7951 N   0  0  0  0  0  0  0  0  0  0  0  0
    9.9918   46.0063  130.3592 C   0  0  0  0  0  0  0  0  0  0  0  0
    9.7834   46.1170  131.7408 C   0  0  0  0  0  0  0  0  0  0  0  0
    8.6201   46.7659  131.9045 N   0  0  0  0  0  0  0  0  0  0  0  0
    8.1711   47.0133  132.8154 H   0  0  0  0  0  0  0  0  0  0  0  0
   10.6742   45.6194  132.7694 C   0  0  0  0  0  0  0  0  0  0  0  0
   10.1796   44.7920  133.7558 C   0  0  0  0  0  0  0  0  0  0  0  0
   11.0359   44.3200  134.7476 C   0  0  0  0  0  0  0  0  0  0  0  0
   12.3718   44.6598  134.7689 C   0  0  0  0  0  0  0  0  0  0  0  0
   12.8506   45.4855  133.7787 C   0  0  0  0  0  0  0  0  0  0  0  0
   12.0087   45.9582  132.7908 C   0  0  0  0  0  0  0  0  0  0  0  0
   11.1609   45.3539  129.7937 C   0  0  0  0  0  0  0  0  0  0  0  0
   12.1629   46.0885  129.1538 C   0  0  0  0  0  0  0  0  0  0  0  0
   13.2543   45.4442  128.6216 C   0  0  0  0  0  0  0  0  0  0  0  0
   13.3239   44.0724  128.7397 C   0  0  0  0  0  0  0  0  0  0  0  0
   12.3195   43.3404  129.3808 C   0  0  0  0  0  0  0  0  0  0  0  0
   11.2205   43.9805  129.9171 C   0  0  0  0  0  0  0  0  0  0  0  0
   10.2028   43.2754  130.5618 O   0  0  0  0  0  0  0  0  0  0  0  0
   10.3903   42.2640  131.4997 C   0  0  0  0  0  0  0  0  0  0  0  0
 15 16  1  0  0  0
 16  9  1  0  0  0
  9 10  2  0  0  0
 10 11  1  0  0  0
 11 12  2  0  0  0
 12 13  1  0  0  0
 13 17  1  0  0  0
 17 18  1  0  0  0
 13 14  2  0  0  0
 14 19  1  0  0  0
 19 20  1  0  0  0
 11  1  1  0  0  0
  1  2  2  0  0  0
  1  3  1  0  0  0
  3  4  1  0  0  0
  4  5  1  0  0  0
  5  6  1  0  0  0
  6  7  1  0  0  0
  7  8  1  0  0  0
  6 21  1  0  0  0
 21 22  2  0  0  0
 22 23  1  0  0  0
 23 24  2  0  0  0
 24 25  1  0  0  0
 24 27  1  0  0  0
 27 28  2  0  0  0
 28 29  1  0  0  0
 29 30  2  0  0  0
 30 31  1  0  0  0
 31 32  2  0  0  0
 23 33  1  0  0  0
 33 34  2  0  0  0
 34 35  1  0  0  0
 35 36  2  0  0  0
 36 37  1  0  0  0
 37 38  2  0  0  0
 38 39  1  0  0  0
 39 40  1  0  0  0
 14  9  1  0  0  0
  8  3  1  0  0  0
 25 21  1  0  0  0
 32 27  1  0  0  0
 38 33  1  0  0  0
 25 26  1  0  0  0
M  END
> <minimizedAffinity>
21.70042

> <CNNscore>
0.3981082141

> <CNNaffinity>
7.3550505638

> <CNN_VS>
2.9281060696

> <CNNaffinity_variance>
0.6350700855

$$$$
[H]c1c([H])c([H])c(-c2c(-c3c([H])c([H])c([H])c([H])c3OC([H])([H])[H])nc(C3([H])C([H])([H])C([H])([H])N(C(=O)c4c([H])c(OC([H])([H])[H])c(OC([H])([H])[H])c(OC([H])([H])[H])c4[H])C([H])([H])C3([H])[H])n2[H])c([H])c1[H]


 40 44  0  0  0  0  0  0  0  0999 V2000
    7.0367   53.1227  128.4869 C   0  0  0  0  0  0  0  0  0  0  0  0
    7.2007   54.1477  129.3021 O   0  0  0  0  0  0  0  0  0  0  0  0
    7.0181   51.9015  129.1523 N   0  0  0  0  0  0  0  0  0  0  0  0
    7.2260   51.9372  130.6326 C   0  0  0  0  0  0  0  0  0  0  0  0
    8.1007   50.7489  130.9462 C   0  0  0  0  0  0  0  0  0  0  0  0
    7.2358   49.4858  130.8093 C   0  0  0  0  0  0  0  0  0  0  0  0
    6.3283   49.5997  129.6365 C   0  0  0  0  0  0  0  0  0  0  0  0
    6.7884   50.6252  128.5888 C   0  0  0  0  0  0  0  0  0  0  0  0
    5.7801   54.2028  125.0929 C   0  0  0  0  0  0  0  0  0  0  0  0
    5.7892   53.8783  126.4470 C   0  0  0  0  0  0  0  0  0  0  0  0
    6.9062   53.4392  127.0873 C   0  0  0  0  0  0  0  0  0  0  0  0
    8.0659   53.3259  126.3027 C   0  0  0  0  0  0  0  0  0  0  0  0
    8.0563   53.6449  124.9750 C   0  0  0  0  0  0  0  0  0  0  0  0
    6.9117   54.0924  124.3321 C   0  0  0  0  0  0  0  0  0  0  0  0
    3.3762   54.3842  125.1182 C   0  0  0  0  0  0  0  0  0  0  0  0
    4.6078   54.6561  124.4631 O   0  0  0  0  0  0  0  0  0  0  0  0
    9.2145   53.5235  124.2243 O   0  0  0  0  0  0  0  0  0  0  0  0
    9.4189   52.4102  123.4107 C   0  0  0  0  0  0  0  0  0  0  0  0
    6.8728   54.4219  122.9874 O   0  0  0  0  0  0  0  0  0  0  0  0
    5.6153   54.2260  122.3236 C   0  0  0  0  0  0  0  0  0  0  0  0
    8.0988   48.2933  130.6828 C   0  0  0  0  0  0  0  0  0  0  0  0
    8.9159   47.7895  131.6242 N   0  0  0  0  0  0  0  0  0  0  0  0
    9.5581   46.7149  131.1982 C   0  0  0  0  0  0  0  0  0  0  0  0
    9.1210   46.5128  129.8819 C   0  0  0  0  0  0  0  0  0  0  0  0
    8.2406   47.4895  129.6137 N   0  0  0  0  0  0  0  0  0  0  0  0
    7.7251   47.6300  128.7153 H   0  0  0  0  0  0  0  0  0  0  0  0
    9.5528   45.4424  129.0062 C   0  0  0  0  0  0  0  0  0  0  0  0
    8.8085   44.2837  128.9298 C   0  0  0  0  0  0  0  0  0  0  0  0
    9.2288   43.2532  128.0925 C   0  0  0  0  0  0  0  0  0  0  0  0
   10.3749   43.3617  127.3341 C   0  0  0  0  0  0  0  0  0  0  0  0
   11.1066   44.5231  127.4206 C   0  0  0  0  0  0  0  0  0  0  0  0
   10.6973   45.5506  128.2481 C   0  0  0  0  0  0  0  0  0  0  0  0
   10.5276   45.8454  131.8433 C   0  0  0  0  0  0  0  0  0  0  0  0
   11.7078   45.4690  131.1963 C   0  0  0  0  0  0  0  0  0  0  0  0
   12.6035   44.6394  131.8278 C   0  0  0  0  0  0  0  0  0  0  0  0
   12.3017   44.2000  133.0991 C   0  0  0  0  0  0  0  0  0  0  0  0
   11.1199   44.5787  133.7438 C   0  0  0  0  0  0  0  0  0  0  0  0
   10.2155   45.4110  133.1157 C   0  0  0  0  0  0  0  0  0  0  0  0
    9.0279   45.8046  133.7346 O   0  0  0  0  0  0  0  0  0  0  0  0
    8.9315   46.6743  134.8174 C   0  0  0  0  0  0  0  0  0  0  0  0
 15 16  1  0  0  0
 16  9  1  0  0  0
  9 10  2  0  0  0
 10 11  1  0  0  0
 11 12  2  0  0  0
 12 13  1  0  0  0
 13 17  1  0  0  0
 17 18  1  0  0  0
 13 14  2  0  0  0
 14 19  1  0  0  0
 19 20  1  0  0  0
 11  1  1  0  0  0
  1  2  2  0  0  0
  1  3  1  0  0  0
  3  4  1  0  0  0
  4  5  1  0  0  0
  5  6  1  0  0  0
  6  7  1  0  0  0
  7  8  1  0  0  0
  6 21  1  0  0  0
 21 22  2  0  0  0
 22 23  1  0  0  0
 23 24  2  0  0  0
 24 25  1  0  0  0
 24 27  1  0  0  0
 27 28  2  0  0  0
 28 29  1  0  0  0
 29 30  2  0  0  0
 30 31  1  0  0  0
 31 32  2  0  0  0
 23 33  1  0  0  0
 33 34  2  0  0  0
 34 35  1  0  0  0
 35 36  2  0  0  0
 36 37  1  0  0  0
 37 38  2  0  0  0
 38 39  1  0  0  0
 39 40  1  0  0  0
 14  9  1  0  0  0
  8  3  1  0  0  0
 25 21  1  0  0  0
 32 27  1  0  0  0
 38 33  1  0  0  0
 25 26  1  0  0  0
M  END
> <minimizedAffinity>
7.98569

> <CNNscore>
0.3731811941

> <CNNaffinity>
7.5703382492

> <CNN_VS>
2.8251078129

> <CNNaffinity_variance>
0.2077911794

$$$$
[H]c1c([H])c([H])c(-c2c(-c3c([H])c([H])c([H])c([H])c3OC([H])([H])[H])nc(C3([H])C([H])([H])C([H])([H])N(C(=O)c4c([H])c(OC([H])([H])[H])c(OC([H])([H])[H])c(OC([H])([H])[H])c4[H])C([H])([H])C3([H])[H])n2[H])c([H])c1[H]


 40 44  0  0  0  0  0  0  0  0999 V2000
    6.8606   52.9306  128.5932 C   0  0  0  0  0  0  0  0  0  0  0  0
    6.7210   53.8735  129.5062 O   0  0  0  0  0  0  0  0  0  0  0  0
    6.6818   51.6507  129.1075 N   0  0  0  0  0  0  0  0  0  0  0  0
    6.4138   51.5453  130.5747 C   0  0  0  0  0  0  0  0  0  0  0  0
    7.1917   50.3400  131.0416 C   0  0  0  0  0  0  0  0  0  0  0  0
    6.4629   49.0884  130.5271 C   0  0  0  0  0  0  0  0  0  0  0  0
    5.9650   49.3070  129.1428 C   0  0  0  0  0  0  0  0  0  0  0  0
    6.6901   50.4328  128.3893 C   0  0  0  0  0  0  0  0  0  0  0  0
    8.5758   53.8834  125.3660 C   0  0  0  0  0  0  0  0  0  0  0  0
    8.3935   53.4809  126.6865 C   0  0  0  0  0  0  0  0  0  0  0  0
    7.1632   53.3796  127.2579 C   0  0  0  0  0  0  0  0  0  0  0  0
    6.0705   53.7079  126.4385 C   0  0  0  0  0  0  0  0  0  0  0  0
    6.2501   54.1019  125.1434 C   0  0  0  0  0  0  0  0  0  0  0  0
    7.5092   54.2012  124.5704 C   0  0  0  0  0  0  0  0  0  0  0  0
    9.9795   54.6583  123.5655 C   0  0  0  0  0  0  0  0  0  0  0  0
    9.8621   53.9752  124.8062 O   0  0  0  0  0  0  0  0  0  0  0  0
    5.1545   54.4203  124.3572 O   0  0  0  0  0  0  0  0  0  0  0  0
    3.9104   54.6608  124.9383 C   0  0  0  0  0  0  0  0  0  0  0  0
    7.7209   54.5990  123.2607 O   0  0  0  0  0  0  0  0  0  0  0  0
    8.1059   53.5674  122.3399 C   0  0  0  0  0  0  0  0  0  0  0  0
    7.3677   47.9214  130.5741 C   0  0  0  0  0  0  0  0  0  0  0  0
    8.6935   47.9413  130.7967 N   0  0  0  0  0  0  0  0  0  0  0  0
    9.2176   46.7275  130.7713 C   0  0  0  0  0  0  0  0  0  0  0  0
    8.1469   45.8609  130.5119 C   0  0  0  0  0  0  0  0  0  0  0  0
    7.0499   46.6260  130.4004 N   0  0  0  0  0  0  0  0  0  0  0  0
    6.0784   46.2923  130.2077 H   0  0  0  0  0  0  0  0  0  0  0  0
    8.2390   44.4197  130.3962 C   0  0  0  0  0  0  0  0  0  0  0  0
    8.7662   43.8614  129.2505 C   0  0  0  0  0  0  0  0  0  0  0  0
    8.8478   42.4756  129.1383 C   0  0  0  0  0  0  0  0  0  0  0  0
    8.4134   41.6432  130.1478 C   0  0  0  0  0  0  0  0  0  0  0  0
    7.8902   42.2144  131.2843 C   0  0  0  0  0  0  0  0  0  0  0  0
    7.8057   43.5879  131.4045 C   0  0  0  0  0  0  0  0  0  0  0  0
   10.5802   46.2557  130.9527 C   0  0  0  0  0  0  0  0  0  0  0  0
   11.1689   46.2088  132.2193 C   0  0  0  0  0  0  0  0  0  0  0  0
   12.4621   45.7650  132.3604 C   0  0  0  0  0  0  0  0  0  0  0  0
   13.1452   45.3747  131.2283 C   0  0  0  0  0  0  0  0  0  0  0  0
   12.5531   45.4227  129.9624 C   0  0  0  0  0  0  0  0  0  0  0  0
   11.2552   45.8678  129.8130 C   0  0  0  0  0  0  0  0  0  0  0  0
   10.6391   45.9270  128.5618 O   0  0  0  0  0  0  0  0  0  0  0  0
   10.9727   45.1447  127.4597 C   0  0  0  0  0  0  0  0  0  0  0  0
 15 16  1  0  0  0
 16  9  1  0  0  0
  9 10  2  0  0  0
 10 11  1  0  0  0
 11 12  2  0  0  0
 12 13  1  0  0  0
 13 17  1  0  0  0
 17 18  1  0  0  0
 13 14  2  0  0  0
 14 19  1  0  0  0
 19 20  1  0  0  0
 11  1  1  0  0  0
  1  2  2  0  0  0
  1  3  1  0  0  0
  3  4  1  0  0  0
  4  5  1  0  0  0
  5  6  1  0  0  0
  6  7  1  0  0  0
  7  8  1  0  0  0
  6 21  1  0  0  0
 21 22  2  0  0  0
 22 23  1  0  0  0
 23 24  2  0  0  0
 24 25  1  0  0  0
 24 27  1  0  0  0
 27 28  2  0  0  0
 28 29  1  0  0  0
 29 30  2  0  0  0
 30 31  1  0  0  0
 31 32  2  0  0  0
 23 33  1  0  0  0
 33 34  2  0  0  0
 34 35  1  0  0  0
 35 36  2  0  0  0
 36 37  1  0  0  0
 37 38  2  0  0  0
 38 39  1  0  0  0
 39 40  1  0  0  0
 14  9  1  0  0  0
  8  3  1  0  0  0
 25 21  1  0  0  0
 32 27  1  0  0  0
 38 33  1  0  0  0
 25 26  1  0  0  0
M  END
> <minimizedAffinity>
12.85362

> <CNNscore>
0.3676757812

> <CNNaffinity>
7.3649663925

> <CNN_VS>
2.7079198360

> <CNNaffinity_variance>
0.6172732711

$$$$
[H]c1c([H])c([H])c(-c2c(-c3c([H])c([H])c([H])c([H])c3OC([H])([H])[H])nc(C3([H])C([H])([H])C([H])([H])N(C(=O)c4c([H])c(OC([H])([H])[H])c(OC([H])([H])[H])c(OC([H])([H])[H])c4[H])C([H])([H])C3([H])[H])n2[H])c([H])c1[H]


 40 44  0  0  0  0  0  0  0  0999 V2000
    9.5563   39.7182  128.9335 C   0  0  0  0  0  0  0  0  0  0  0  0
    8.8595   38.7632  129.5206 O   0  0  0  0  0  0  0  0  0  0  0  0
    9.6832   40.8566  129.7223 N   0  0  0  0  0  0  0  0  0  0  0  0
    8.9941   40.8375  131.0491 C   0  0  0  0  0  0  0  0  0  0  0  0
    8.4218   42.2219  131.2268 C   0  0  0  0  0  0  0  0  0  0  0  0
    9.5911   43.1736  131.5256 C   0  0  0  0  0  0  0  0  0  0  0  0
   10.7696   42.8317  130.6851 C   0  0  0  0  0  0  0  0  0  0  0  0
   10.4238   42.0237  129.4247 C   0  0  0  0  0  0  0  0  0  0  0  0
   11.6997   38.7844  125.9672 C   0  0  0  0  0  0  0  0  0  0  0  0
   11.3302   39.1014  127.2718 C   0  0  0  0  0  0  0  0  0  0  0  0
   10.0532   39.4217  127.6138 C   0  0  0  0  0  0  0  0  0  0  0  0
    9.1130   39.4188  126.5701 C   0  0  0  0  0  0  0  0  0  0  0  0
    9.4760   39.1072  125.2912 C   0  0  0  0  0  0  0  0  0  0  0  0
   10.7811   38.7814  124.9534 C   0  0  0  0  0  0  0  0  0  0  0  0
   13.7862   37.7872  126.6488 C   0  0  0  0  0  0  0  0  0  0  0  0
   13.0290   38.4557  125.6490 O   0  0  0  0  0  0  0  0  0  0  0  0
    8.5282   39.1123  124.2806 O   0  0  0  0  0  0  0  0  0  0  0  0
    7.9983   40.3132  123.8111 C   0  0  0  0  0  0  0  0  0  0  0  0
   11.1777   38.4625  123.6652 O   0  0  0  0  0  0  0  0  0  0  0  0
   10.4200   39.0607  122.6030 C   0  0  0  0  0  0  0  0  0  0  0  0
    9.1767   44.5725  131.2924 C   0  0  0  0  0  0  0  0  0  0  0  0
    9.6731   45.6681  131.8932 N   0  0  0  0  0  0  0  0  0  0  0  0
    9.0861   46.7742  131.4681 C   0  0  0  0  0  0  0  0  0  0  0  0
    8.1395   46.3577  130.5220 C   0  0  0  0  0  0  0  0  0  0  0  0
    8.2300   45.0207  130.4487 N   0  0  0  0  0  0  0  0  0  0  0  0
    7.6616   44.3936  129.8354 H   0  0  0  0  0  0  0  0  0  0  0  0
    7.2513   47.2290  129.7796 C   0  0  0  0  0  0  0  0  0  0  0  0
    7.7584   48.0107  128.7627 C   0  0  0  0  0  0  0  0  0  0  0  0
    6.9044   48.8526  128.0545 C   0  0  0  0  0  0  0  0  0  0  0  0
    5.5587   48.9251  128.3447 C   0  0  0  0  0  0  0  0  0  0  0  0
    5.0675   48.1396  129.3613 C   0  0  0  0  0  0  0  0  0  0  0  0
    5.9070   47.3013  130.0689 C   0  0  0  0  0  0  0  0  0  0  0  0
    9.2794   48.1710  131.8195 C   0  0  0  0  0  0  0  0  0  0  0  0
    9.0033   49.1933  130.9075 C   0  0  0  0  0  0  0  0  0  0  0  0
    9.2024   50.5056  131.2647 C   0  0  0  0  0  0  0  0  0  0  0  0
    9.6755   50.7725  132.5317 C   0  0  0  0  0  0  0  0  0  0  0  0
    9.9507   49.7472  133.4420 C   0  0  0  0  0  0  0  0  0  0  0  0
    9.7537   48.4271  133.0902 C   0  0  0  0  0  0  0  0  0  0  0  0
   10.0204   47.3834  133.9779 O   0  0  0  0  0  0  0  0  0  0  0  0
    9.2123   47.0062  135.0468 C   0  0  0  0  0  0  0  0  0  0  0  0
 15 16  1  0  0  0
 16  9  1  0  0  0
  9 10  2  0  0  0
 10 11  1  0  0  0
 11 12  2  0  0  0
 12 13  1  0  0  0
 13 17  1  0  0  0
 17 18  1  0  0  0
 13 14  2  0  0  0
 14 19  1  0  0  0
 19 20  1  0  0  0
 11  1  1  0  0  0
  1  2  2  0  0  0
  1  3  1  0  0  0
  3  4  1  0  0  0
  4  5  1  0  0  0
  5  6  1  0  0  0
  6  7  1  0  0  0
  7  8  1  0  0  0
  6 21  1  0  0  0
 21 22  2  0  0  0
 22 23  1  0  0  0
 23 24  2  0  0  0
 24 25  1  0  0  0
 24 27  1  0  0  0
 27 28  2  0  0  0
 28 29  1  0  0  0
 29 30  2  0  0  0
 30 31  1  0  0  0
 31 32  2  0  0  0
 23 33  1  0  0  0
 33 34  2  0  0  0
 34 35  1  0  0  0
 35 36  2  0  0  0
 36 37  1  0  0  0
 37 38  2  0  0  0
 38 39  1  0  0  0
 39 40  1  0  0  0
 14  9  1  0  0  0
  8  3  1  0  0  0
 25 21  1  0  0  0
 32 27  1  0  0  0
 38 33  1  0  0  0
 25 26  1  0  0  0
M  END
> <minimizedAffinity>
32.07027

> <CNNscore>
0.3443799913

> <CNNaffinity>
7.3660674095

> <CNN_VS>
2.5367262363

> <CNNaffinity_variance>
0.3830610216

$$$$
[H]c1c([H])c([H])c(-c2c(-c3c([H])c([H])c([H])c([H])c3OC([H])([H])[H])nc(C3([H])C([H])([H])C([H])([H])N(C(=O)c4c([H])c(OC([H])([H])[H])c(OC([H])([H])[H])c(OC([H])([H])[H])c4[H])C([H])([H])C3([H])[H])n2[H])c([H])c1[H]


 40 44  0  0  0  0  0  0  0  0999 V2000
    9.4356   39.7506  128.7896 C   0  0  0  0  0  0  0  0  0  0  0  0
    8.8215   38.7649  129.4168 O   0  0  0  0  0  0  0  0  0  0  0  0
    9.6370   40.8632  129.5995 N   0  0  0  0  0  0  0  0  0  0  0  0
    9.1029   40.7874  130.9939 C   0  0  0  0  0  0  0  0  0  0  0  0
    8.5375   42.1554  131.2847 C   0  0  0  0  0  0  0  0  0  0  0  0
    9.7214   43.1151  131.4838 C   0  0  0  0  0  0  0  0  0  0  0  0
   10.8012   42.8215  130.5040 C   0  0  0  0  0  0  0  0  0  0  0  0
   10.3248   42.0517  129.2624 C   0  0  0  0  0  0  0  0  0  0  0  0
    9.4096   39.3843  125.0305 C   0  0  0  0  0  0  0  0  0  0  0  0
    8.9614   39.5942  126.3321 C   0  0  0  0  0  0  0  0  0  0  0  0
    9.7834   39.5078  127.4125 C   0  0  0  0  0  0  0  0  0  0  0  0
   11.1254   39.1896  127.1460 C   0  0  0  0  0  0  0  0  0  0  0  0
   11.5643   38.9846  125.8693 C   0  0  0  0  0  0  0  0  0  0  0  0
   10.7176   39.0759  124.7746 C   0  0  0  0  0  0  0  0  0  0  0  0
    8.0592   40.7821  123.6039 C   0  0  0  0  0  0  0  0  0  0  0  0
    8.5327   39.4839  123.9362 O   0  0  0  0  0  0  0  0  0  0  0  0
   12.8935   38.6716  125.6348 O   0  0  0  0  0  0  0  0  0  0  0  0
   13.6496   38.0159  126.6051 C   0  0  0  0  0  0  0  0  0  0  0  0
   11.1348   38.8720  123.4697 O   0  0  0  0  0  0  0  0  0  0  0  0
   10.3945   37.9034  122.7122 C   0  0  0  0  0  0  0  0  0  0  0  0
    9.2661   44.5143  131.3493 C   0  0  0  0  0  0  0  0  0  0  0  0
    9.8007   45.5938  131.9463 N   0  0  0  0  0  0  0  0  0  0  0  0
    9.1599   46.7050  131.6248 C   0  0  0  0  0  0  0  0  0  0  0  0
    8.1345   46.3094  130.7549 C   0  0  0  0  0  0  0  0  0  0  0  0
    8.2375   44.9784  130.6175 N   0  0  0  0  0  0  0  0  0  0  0  0
    7.6231   44.3660  130.0343 H   0  0  0  0  0  0  0  0  0  0  0  0
    7.1675   47.1931  130.1361 C   0  0  0  0  0  0  0  0  0  0  0  0
    7.4920   48.5173  129.9270 C   0  0  0  0  0  0  0  0  0  0  0  0
    6.5587   49.3669  129.3382 C   0  0  0  0  0  0  0  0  0  0  0  0
    5.3129   48.9166  128.9567 C   0  0  0  0  0  0  0  0  0  0  0  0
    5.0036   47.5937  129.1714 C   0  0  0  0  0  0  0  0  0  0  0  0
    5.9231   46.7436  129.7545 C   0  0  0  0  0  0  0  0  0  0  0  0
    9.3648   48.0899  132.0148 C   0  0  0  0  0  0  0  0  0  0  0  0
    9.8072   49.0446  131.0951 C   0  0  0  0  0  0  0  0  0  0  0  0
    9.9994   50.3459  131.4937 C   0  0  0  0  0  0  0  0  0  0  0  0
    9.7447   50.6699  132.8092 C   0  0  0  0  0  0  0  0  0  0  0  0
    9.3019   49.7121  133.7270 C   0  0  0  0  0  0  0  0  0  0  0  0
    9.1072   48.4034  133.3341 C   0  0  0  0  0  0  0  0  0  0  0  0
    8.6667   47.4264  134.2285 O   0  0  0  0  0  0  0  0  0  0  0  0
    9.4733   46.7270  135.1219 C   0  0  0  0  0  0  0  0  0  0  0  0
 15 16  1  0  0  0
 16  9  1  0  0  0
  9 10  2  0  0  0
 10 11  1  0  0  0
 11 12  2  0  0  0
 12 13  1  0  0  0
 13 17  1  0  0  0
 17 18  1  0  0  0
 13 14  2  0  0  0
 14 19  1  0  0  0
 19 20  1  0  0  0
 11  1  1  0  0  0
  1  2  2  0  0  0
  1  3  1  0  0  0
  3  4  1  0  0  0
  4  5  1  0  0  0
  5  6  1  0  0  0
  6  7  1  0  0  0
  7  8  1  0  0  0
  6 21  1  0  0  0
 21 22  2  0  0  0
 22 23  1  0  0  0
 23 24  2  0  0  0
 24 25  1  0  0  0
 24 27  1  0  0  0
 27 28  2  0  0  0
 28 29  1  0  0  0
 29 30  2  0  0  0
 30 31  1  0  0  0
 31 32  2  0  0  0
 23 33  1  0  0  0
 33 34  2  0  0  0
 34 35  1  0  0  0
 35 36  2  0  0  0
 36 37  1  0  0  0
 37 38  2  0  0  0
 38 39  1  0  0  0
 39 40  1  0  0  0
 14  9  1  0  0  0
  8  3  1  0  0  0
 25 21  1  0  0  0
 32 27  1  0  0  0
 38 33  1  0  0  0
 25 26  1  0  0  0
M  END
> <minimizedAffinity>
33.42443

> <CNNscore>
0.3037529588

> <CNNaffinity>
7.3928070068

> <CNN_VS>
2.2455871105

> <CNNaffinity_variance>
0.3594078124

$$$$
[H]c1c([H])c([H])c(-c2c(-c3c([H])c([H])c([H])c([H])c3OC([H])([H])[H])nc(C3([H])C([H])([H])C([H])([H])N(C(=O)c4c([H])c(OC([H])([H])[H])c(OC([H])([H])[H])c(OC([H])([H])[H])c4[H])C([H])([H])C3([H])[H])n2[H])c([H])c1[H]


 40 44  0  0  0  0  0  0  0  0999 V2000
    7.1911   53.3656  128.1588 C   0  0  0  0  0  0  0  0  0  0  0  0
    7.6154   54.4016  128.8578 O   0  0  0  0  0  0  0  0  0  0  0  0
    7.0613   52.2131  128.9264 N   0  0  0  0  0  0  0  0  0  0  0  0
    7.4539   52.3142  130.3656 C   0  0  0  0  0  0  0  0  0  0  0  0
    8.1610   51.0199  130.6830 C   0  0  0  0  0  0  0  0  0  0  0  0
    7.0962   49.9138  130.7541 C   0  0  0  0  0  0  0  0  0  0  0  0
    6.0802   50.0984  129.6837 C   0  0  0  0  0  0  0  0  0  0  0  0
    6.5640   50.9582  128.5057 C   0  0  0  0  0  0  0  0  0  0  0  0
    7.4516   53.6375  124.4007 C   0  0  0  0  0  0  0  0  0  0  0  0
    7.8092   53.4222  125.7291 C   0  0  0  0  0  0  0  0  0  0  0  0
    6.9403   53.6035  126.7599 C   0  0  0  0  0  0  0  0  0  0  0  0
    5.6467   54.0268  126.4125 C   0  0  0  0  0  0  0  0  0  0  0  0
    5.2966   54.2370  125.1096 C   0  0  0  0  0  0  0  0  0  0  0  0
    6.1905   54.0485  124.0659 C   0  0  0  0  0  0  0  0  0  0  0  0
    9.5608   54.2207  123.3888 C   0  0  0  0  0  0  0  0  0  0  0  0
    8.3748   53.4382  123.3592 O   0  0  0  0  0  0  0  0  0  0  0  0
    4.0136   54.6548  124.7949 O   0  0  0  0  0  0  0  0  0  0  0  0
    3.0111   54.6580  125.7636 C   0  0  0  0  0  0  0  0  0  0  0  0
    5.8634   54.2551  122.7360 O   0  0  0  0  0  0  0  0  0  0  0  0
    4.5714   53.7871  122.3215 C   0  0  0  0  0  0  0  0  0  0  0  0
    7.7366   48.5874  130.6375 C   0  0  0  0  0  0  0  0  0  0  0  0
    7.9802   47.7223  131.6374 N   0  0  0  0  0  0  0  0  0  0  0  0
    8.5714   46.6210  131.2057 C   0  0  0  0  0  0  0  0  0  0  0  0
    8.7199   46.7915  129.8224 C   0  0  0  0  0  0  0  0  0  0  0  0
    8.2015   47.9929  129.5241 N   0  0  0  0  0  0  0  0  0  0  0  0
    8.1522   48.4286  128.5753 H   0  0  0  0  0  0  0  0  0  0  0  0
    9.3187   45.8335  128.9153 C   0  0  0  0  0  0  0  0  0  0  0  0
   10.5786   46.0727  128.4078 C   0  0  0  0  0  0  0  0  0  0  0  0
   11.1500   45.1540  127.5308 C   0  0  0  0  0  0  0  0  0  0  0  0
   10.4858   44.0059  127.1550 C   0  0  0  0  0  0  0  0  0  0  0  0
    9.2302   43.7808  127.6694 C   0  0  0  0  0  0  0  0  0  0  0  0
    8.6558   44.6863  128.5402 C   0  0  0  0  0  0  0  0  0  0  0  0
    9.0227   45.4268  131.9001 C   0  0  0  0  0  0  0  0  0  0  0  0
    8.3798   44.1985  131.7235 C   0  0  0  0  0  0  0  0  0  0  0  0
    8.8238   43.0867  132.3989 C   0  0  0  0  0  0  0  0  0  0  0  0
    9.9063   43.2241  133.2414 C   0  0  0  0  0  0  0  0  0  0  0  0
   10.5474   44.4546  133.4158 C   0  0  0  0  0  0  0  0  0  0  0  0
   10.1068   45.5753  132.7413 C   0  0  0  0  0  0  0  0  0  0  0  0
   10.7269   46.8163  132.8965 O   0  0  0  0  0  0  0  0  0  0  0  0
   10.5577   47.6734  133.9804 C   0  0  0  0  0  0  0  0  0  0  0  0
 15 16  1  0  0  0
 16  9  1  0  0  0
  9 10  2  0  0  0
 10 11  1  0  0  0
 11 12  2  0  0  0
 12 13  1  0  0  0
 13 17  1  0  0  0
 17 18  1  0  0  0
 13 14  2  0  0  0
 14 19  1  0  0  0
 19 20  1  0  0  0
 11  1  1  0  0  0
  1  2  2  0  0  0
  1  3  1  0  0  0
  3  4  1  0  0  0
  4  5  1  0  0  0
  5  6  1  0  0  0
  6  7  1  0  0  0
  7  8  1  0  0  0
  6 21  1  0  0  0
 21 22  2  0  0  0
 22 23  1  0  0  0
 23 24  2  0  0  0
 24 25  1  0  0  0
 24 27  1  0  0  0
 27 28  2  0  0  0
 28 29  1  0  0  0
 29 30  2  0  0  0
 30 31  1  0  0  0
 31 32  2  0  0  0
 23 33  1  0  0  0
 33 34  2  0  0  0
 34 35  1  0  0  0
 35 36  2  0  0  0
 36 37  1  0  0  0
 37 38  2  0  0  0
 38 39  1  0  0  0
 39 40  1  0  0  0
 14  9  1  0  0  0
  8  3  1  0  0  0
 25 21  1  0  0  0
 32 27  1  0  0  0
 38 33  1  0  0  0
 25 26  1  0  0  0
M  END
> <minimizedAffinity>
8.12217

> <CNNscore>
0.3024642467

> <CNNaffinity>
7.2868895531

> <CNN_VS>
2.2040235996

> <CNNaffinity_variance>
0.2382611334

$$$$
[H]c1c([H])c([H])c(-c2c(-c3c([H])c([H])c([H])c([H])c3OC([H])([H])[H])nc(C3([H])C([H])([H])C([H])([H])N(C(=O)c4c([H])c(OC([H])([H])[H])c(OC([H])([H])[H])c(OC([H])([H])[H])c4[H])C([H])([H])C3([H])[H])n2[H])c([H])c1[H]


 40 44  0  0  0  0  0  0  0  0999 V2000
    6.9956   53.1031  128.5890 C   0  0  0  0  0  0  0  0  0  0  0  0
    7.0375   54.0955  129.4583 O   0  0  0  0  0  0  0  0  0  0  0  0
    6.9543   51.8534  129.1981 N   0  0  0  0  0  0  0  0  0  0  0  0
    7.0086   51.8297  130.6921 C   0  0  0  0  0  0  0  0  0  0  0  0
    7.8901   50.6576  131.0455 C   0  0  0  0  0  0  0  0  0  0  0  0
    7.0909   49.3745  130.7680 C   0  0  0  0  0  0  0  0  0  0  0  0
    6.3043   49.5111  129.5132 C   0  0  0  0  0  0  0  0  0  0  0  0
    6.8307   50.5969  128.5618 C   0  0  0  0  0  0  0  0  0  0  0  0
    6.0403   54.2404  125.1164 C   0  0  0  0  0  0  0  0  0  0  0  0
    5.9247   53.8499  126.4480 C   0  0  0  0  0  0  0  0  0  0  0  0
    6.9970   53.4775  127.1976 C   0  0  0  0  0  0  0  0  0  0  0  0
    8.2441   53.5050  126.5516 C   0  0  0  0  0  0  0  0  0  0  0  0
    8.3567   53.8887  125.2460 C   0  0  0  0  0  0  0  0  0  0  0  0
    7.2566   54.2672  124.4908 C   0  0  0  0  0  0  0  0  0  0  0  0
    3.6425   54.2146  124.8671 C   0  0  0  0  0  0  0  0  0  0  0  0
    4.9107   54.6215  124.3713 O   0  0  0  0  0  0  0  0  0  0  0  0
    9.5991   53.9064  124.6330 O   0  0  0  0  0  0  0  0  0  0  0  0
    9.7669   54.5087  123.3871 C   0  0  0  0  0  0  0  0  0  0  0  0
    7.3411   54.6596  123.1652 O   0  0  0  0  0  0  0  0  0  0  0  0
    6.2434   54.2809  122.3215 C   0  0  0  0  0  0  0  0  0  0  0  0
    8.0058   48.2175  130.6826 C   0  0  0  0  0  0  0  0  0  0  0  0
    8.1677   47.3974  129.6296 N   0  0  0  0  0  0  0  0  0  0  0  0
    9.0608   46.4526  129.8710 C   0  0  0  0  0  0  0  0  0  0  0  0
    9.5069   46.6825  131.1798 C   0  0  0  0  0  0  0  0  0  0  0  0
    8.8426   47.7582  131.6302 N   0  0  0  0  0  0  0  0  0  0  0  0
    8.9406   48.1971  132.5737 H   0  0  0  0  0  0  0  0  0  0  0  0
   10.4992   45.8942  131.8820 C   0  0  0  0  0  0  0  0  0  0  0  0
   11.7824   45.8144  131.3827 C   0  0  0  0  0  0  0  0  0  0  0  0
   12.7332   45.0508  132.0554 C   0  0  0  0  0  0  0  0  0  0  0  0
   12.4237   44.3694  133.2132 C   0  0  0  0  0  0  0  0  0  0  0  0
   11.1400   44.4586  133.6990 C   0  0  0  0  0  0  0  0  0  0  0  0
   10.1905   45.2139  133.0387 C   0  0  0  0  0  0  0  0  0  0  0  0
    9.5601   45.3589  129.0547 C   0  0  0  0  0  0  0  0  0  0  0  0
   10.4428   45.5884  127.9958 C   0  0  0  0  0  0  0  0  0  0  0  0
   10.8932   44.5355  127.2356 C   0  0  0  0  0  0  0  0  0  0  0  0
   10.4513   43.2680  127.5495 C   0  0  0  0  0  0  0  0  0  0  0  0
    9.5682   43.0417  128.6099 C   0  0  0  0  0  0  0  0  0  0  0  0
    9.1113   44.0941  129.3772 C   0  0  0  0  0  0  0  0  0  0  0  0
    8.2291   43.8979  130.4410 O   0  0  0  0  0  0  0  0  0  0  0  0
    7.9521   42.6747  131.0452 C   0  0  0  0  0  0  0  0  0  0  0  0
 15 16  1  0  0  0
 16  9  1  0  0  0
  9 10  2  0  0  0
 10 11  1  0  0  0
 11 12  2  0  0  0
 12 13  1  0  0  0
 13 17  1  0  0  0
 17 18  1  0  0  0
 13 14  2  0  0  0
 14 19  1  0  0  0
 19 20  1  0  0  0
 11  1  1  0  0  0
  1  2  2  0  0  0
  1  3  1  0  0  0
  3  4  1  0  0  0
  4  5  1  0  0  0
  5  6  1  0  0  0
  6  7  1  0  0  0
  7  8  1  0  0  0
  6 21  1  0  0  0
 21 22  2  0  0  0
 22 23  1  0  0  0
 23 24  2  0  0  0
 24 25  1  0  0  0
 24 27  1  0  0  0
 27 28  2  0  0  0
 28 29  1  0  0  0
 29 30  2  0  0  0
 30 31  1  0  0  0
 31 32  2  0  0  0
 23 33  1  0  0  0
 33 34  2  0  0  0
 34 35  1  0  0  0
 35 36  2  0  0  0
 36 37  1  0  0  0
 37 38  2  0  0  0
 38 39  1  0  0  0
 39 40  1  0  0  0
 14  9  1  0  0  0
  8  3  1  0  0  0
 25 21  1  0  0  0
 32 27  1  0  0  0
 38 33  1  0  0  0
 25 26  1  0  0  0
M  END
> <minimizedAffinity>
7.16814

> <CNNscore>
0.2712924778

> <CNNaffinity>
7.4171729088

> <CNN_VS>
2.0122232437

> <CNNaffinity_variance>
0.2581941187

$$$$
[H]c1c([H])c([H])c(-c2c(-c3c([H])c([H])c([H])c([H])c3OC([H])([H])[H])nc(C3([H])C([H])([H])C([H])([H])N(C(=O)c4c([H])c(OC([H])([H])[H])c(OC([H])([H])[H])c(OC([H])([H])[H])c4[H])C([H])([H])C3([H])[H])n2[H])c([H])c1[H]


 40 44  0  0  0  0  0  0  0  0999 V2000
   10.4522   47.9169  132.2892 C   0  0  0  0  0  0  0  0  0  0  0  0
   10.8908   48.6663  133.2833 O   0  0  0  0  0  0  0  0  0  0  0  0
    9.5849   48.5980  131.4417 N   0  0  0  0  0  0  0  0  0  0  0  0
    9.2605   50.0119  131.8040 C   0  0  0  0  0  0  0  0  0  0  0  0
    7.7920   50.1793  131.5019 C   0  0  0  0  0  0  0  0  0  0  0  0
    7.6347   50.2323  129.9739 C   0  0  0  0  0  0  0  0  0  0  0  0
    8.5400   49.2486  129.3221 C   0  0  0  0  0  0  0  0  0  0  0  0
    8.9992   48.1130  130.2497 C   0  0  0  0  0  0  0  0  0  0  0  0
   11.7621   44.4875  133.1772 C   0  0  0  0  0  0  0  0  0  0  0  0
   11.3536   45.8119  133.3115 C   0  0  0  0  0  0  0  0  0  0  0  0
   10.9375   46.5605  132.2547 C   0  0  0  0  0  0  0  0  0  0  0  0
   10.9426   45.9225  131.0032 C   0  0  0  0  0  0  0  0  0  0  0  0
   11.3426   44.6235  130.8725 C   0  0  0  0  0  0  0  0  0  0  0  0
   11.7645   43.8689  131.9570 C   0  0  0  0  0  0  0  0  0  0  0  0
   11.2726   43.6287  135.3762 C   0  0  0  0  0  0  0  0  0  0  0  0
   12.1842   43.7417  134.2917 O   0  0  0  0  0  0  0  0  0  0  0  0
   11.3381   44.0186  129.6260 O   0  0  0  0  0  0  0  0  0  0  0  0
   10.3624   44.3418  128.6843 C   0  0  0  0  0  0  0  0  0  0  0  0
   12.1765   42.5506  131.8537 O   0  0  0  0  0  0  0  0  0  0  0  0
   11.1383   41.5597  131.8668 C   0  0  0  0  0  0  0  0  0  0  0  0
    6.2294   49.9698  129.6009 C   0  0  0  0  0  0  0  0  0  0  0  0
    5.4839   48.9140  129.9711 N   0  0  0  0  0  0  0  0  0  0  0  0
    4.2631   48.9688  129.4658 C   0  0  0  0  0  0  0  0  0  0  0  0
    4.2208   50.1501  128.7125 C   0  0  0  0  0  0  0  0  0  0  0  0
    5.4300   50.7216  128.8233 N   0  0  0  0  0  0  0  0  0  0  0  0
    5.7345   51.6188  128.3817 H   0  0  0  0  0  0  0  0  0  0  0  0
    3.0745   50.6355  127.9712 C   0  0  0  0  0  0  0  0  0  0  0  0
    1.8070   50.4582  128.4853 C   0  0  0  0  0  0  0  0  0  0  0  0
    0.7058   50.9194  127.7681 C   0  0  0  0  0  0  0  0  0  0  0  0
    0.8505   51.5520  126.5518 C   0  0  0  0  0  0  0  0  0  0  0  0
    2.1206   51.7217  126.0519 C   0  0  0  0  0  0  0  0  0  0  0  0
    3.2186   51.2678  126.7564 C   0  0  0  0  0  0  0  0  0  0  0  0
    3.1244   48.0735  129.5822 C   0  0  0  0  0  0  0  0  0  0  0  0
    1.8228   48.5675  129.7050 C   0  0  0  0  0  0  0  0  0  0  0  0
    0.7652   47.6973  129.8209 C   0  0  0  0  0  0  0  0  0  0  0  0
    1.0294   46.3443  129.8117 C   0  0  0  0  0  0  0  0  0  0  0  0
    2.3329   45.8532  129.6885 C   0  0  0  0  0  0  0  0  0  0  0  0
    3.3999   46.7210  129.5723 C   0  0  0  0  0  0  0  0  0  0  0  0
    4.7114   46.2592  129.4486 O   0  0  0  0  0  0  0  0  0  0  0  0
    5.7912   47.0084  128.9897 C   0  0  0  0  0  0  0  0  0  0  0  0
 15 16  1  0  0  0
 16  9  1  0  0  0
  9 10  2  0  0  0
 10 11  1  0  0  0
 11 12  2  0  0  0
 12 13  1  0  0  0
 13 17  1  0  0  0
 17 18  1  0  0  0
 13 14  2  0  0  0
 14 19  1  0  0  0
 19 20  1  0  0  0
 11  1  1  0  0  0
  1  2  2  0  0  0
  1  3  1  0  0  0
  3  4  1  0  0  0
  4  5  1  0  0  0
  5  6  1  0  0  0
  6  7  1  0  0  0
  7  8  1  0  0  0
  6 21  1  0  0  0
 21 22  2  0  0  0
 22 23  1  0  0  0
 23 24  2  0  0  0
 24 25  1  0  0  0
 24 27  1  0  0  0
 27 28  2  0  0  0
 28 29  1  0  0  0
 29 30  2  0  0  0
 30 31  1  0  0  0
 31 32  2  0  0  0
 23 33  1  0  0  0
 33 34  2  0  0  0
 34 35  1  0  0  0
 35 36  2  0  0  0
 36 37  1  0  0  0
 37 38  2  0  0  0
 38 39  1  0  0  0
 39 40  1  0  0  0
 14  9  1  0  0  0
  8  3  1  0  0  0
 25 21  1  0  0  0
 32 27  1  0  0  0
 38 33  1  0  0  0
 25 26  1  0  0  0
M  END
> <minimizedAffinity>
29.17543

> <CNNscore>
0.2413167357

> <CNNaffinity>
7.2481026649

> <CNN_VS>
1.7490885258

> <CNNaffinity_variance>
0.1741758436

$$$$
[H]c1c([H])c([H])c(-c2c(-c3c([H])c([H])c([H])c([H])c3OC([H])([H])[H])nc(C3([H])C([H])([H])C([H])([H])N(C(=O)c4c([H])c(OC([H])([H])[H])c(OC([H])([H])[H])c(OC([H])([H])[H])c4[H])C([H])([H])C3([H])[H])n2[H])c([H])c1[H]


 40 44  0  0  0  0  0  0  0  0999 V2000
    5.0943   49.9137  129.0738 C   0  0  0  0  0  0  0  0  0  0  0  0
    3.9638   49.9338  129.7545 O   0  0  0  0  0  0  0  0  0  0  0  0
    5.7436   48.6856  129.1416 N   0  0  0  0  0  0  0  0  0  0  0  0
    5.1028   47.6302  129.9850 C   0  0  0  0  0  0  0  0  0  0  0  0
    6.2390   46.9314  130.6897 C   0  0  0  0  0  0  0  0  0  0  0  0
    6.9672   46.0641  129.6506 C   0  0  0  0  0  0  0  0  0  0  0  0
    7.0726   46.7830  128.3529 C   0  0  0  0  0  0  0  0  0  0  0  0
    6.9298   48.3084  128.4711 C   0  0  0  0  0  0  0  0  0  0  0  0
    6.9320   52.8534  127.5750 C   0  0  0  0  0  0  0  0  0  0  0  0
    6.6866   51.6889  128.2980 C   0  0  0  0  0  0  0  0  0  0  0  0
    5.4483   51.1343  128.3947 C   0  0  0  0  0  0  0  0  0  0  0  0
    4.4145   51.8057  127.7210 C   0  0  0  0  0  0  0  0  0  0  0  0
    4.6561   52.9471  127.0116 C   0  0  0  0  0  0  0  0  0  0  0  0
    5.9230   53.5038  126.9190 C   0  0  0  0  0  0  0  0  0  0  0  0
    8.4555   54.3684  126.4812 C   0  0  0  0  0  0  0  0  0  0  0  0
    8.2255   53.3983  127.4941 O   0  0  0  0  0  0  0  0  0  0  0  0
    3.6178   53.5894  126.3566 O   0  0  0  0  0  0  0  0  0  0  0  0
    2.3080   53.1282  126.4802 C   0  0  0  0  0  0  0  0  0  0  0  0
    6.1968   54.6604  126.2079 O   0  0  0  0  0  0  0  0  0  0  0  0
    6.2172   54.5351  124.7782 C   0  0  0  0  0  0  0  0  0  0  0  0
    8.3084   45.6964  130.1497 C   0  0  0  0  0  0  0  0  0  0  0  0
    8.6761   45.5544  131.4351 N   0  0  0  0  0  0  0  0  0  0  0  0
    9.9509   45.2228  131.5512 C   0  0  0  0  0  0  0  0  0  0  0  0
   10.4405   45.1463  130.2401 C   0  0  0  0  0  0  0  0  0  0  0  0
    9.4136   45.4399  129.4273 N   0  0  0  0  0  0  0  0  0  0  0  0
    9.4392   45.4720  128.3829 H   0  0  0  0  0  0  0  0  0  0  0  0
   11.7990   44.8084  129.8668 C   0  0  0  0  0  0  0  0  0  0  0  0
   12.1396   44.7349  128.5323 C   0  0  0  0  0  0  0  0  0  0  0  0
   13.4443   44.4034  128.1752 C   0  0  0  0  0  0  0  0  0  0  0  0
   14.4091   44.1458  129.1257 C   0  0  0  0  0  0  0  0  0  0  0  0
   14.0546   44.2231  130.4524 C   0  0  0  0  0  0  0  0  0  0  0  0
   12.7631   44.5516  130.8159 C   0  0  0  0  0  0  0  0  0  0  0  0
   10.7843   44.9674  132.7141 C   0  0  0  0  0  0  0  0  0  0  0  0
   11.6427   45.9471  133.2204 C   0  0  0  0  0  0  0  0  0  0  0  0
   12.4251   45.6753  134.3174 C   0  0  0  0  0  0  0  0  0  0  0  0
   12.3343   44.4245  134.8900 C   0  0  0  0  0  0  0  0  0  0  0  0
   11.4741   43.4465  134.3809 C   0  0  0  0  0  0  0  0  0  0  0  0
   10.6860   43.7120  133.2794 C   0  0  0  0  0  0  0  0  0  0  0  0
    9.8189   42.7550  132.7494 O   0  0  0  0  0  0  0  0  0  0  0  0
    8.4385   42.7295  132.9273 C   0  0  0  0  0  0  0  0  0  0  0  0
 15 16  1  0  0  0
 16  9  1  0  0  0
  9 10  2  0  0  0
 10 11  1  0  0  0
 11 12  2  0  0  0
 12 13  1  0  0  0
 13 17  1  0  0  0
 17 18  1  0  0  0
 13 14  2  0  0  0
 14 19  1  0  0  0
 19 20  1  0  0  0
 11  1  1  0  0  0
  1  2  2  0  0  0
  1  3  1  0  0  0
  3  4  1  0  0  0
  4  5  1  0  0  0
  5  6  1  0  0  0
  6  7  1  0  0  0
  7  8  1  0  0  0
  6 21  1  0  0  0
 21 22  2  0  0  0
 22 23  1  0  0  0
 23 24  2  0  0  0
 24 25  1  0  0  0
 24 27  1  0  0  0
 27 28  2  0  0  0
 28 29  1  0  0  0
 29 30  2  0  0  0
 30 31  1  0  0  0
 31 32  2  0  0  0
 23 33  1  0  0  0
 33 34  2  0  0  0
 34 35  1  0  0  0
 35 36  2  0  0  0
 36 37  1  0  0  0
 37 38  2  0  0  0
 38 39  1  0  0  0
 39 40  1  0  0  0
 14  9  1  0  0  0
  8  3  1  0  0  0
 25 21  1  0  0  0
 32 27  1  0  0  0
 38 33  1  0  0  0
 25 26  1  0  0  0
M  END
> <minimizedAffinity>
23.35320

> <CNNscore>
0.2282602340

> <CNNaffinity>
7.1360688210

> <CNN_VS>
1.6288807392

> <CNNaffinity_variance>
0.7884934545

$$$$
[H]c1c([H])c(N2C([H])([H])C([H])([H])N(C([H])([H])[H])C([H])([H])C2([H])[H])c([H])c([H])c1C(=O)N([H])c1nn([H])c2c([H])c([H])c(C#N)c([H])c12


 29 32  0  0  0  0  0  0  0  0999 V2000
    8.4672   45.7075  130.3935 C   0  0  0  0  0  0  0  0  0  0  0  0
    8.2086   45.4455  131.5898 O   0  0  0  0  0  0  0  0  0  0  0  0
    9.1076   44.7415  129.6007 N   0  0  0  0  0  0  0  0  0  0  0  0
    9.3309   44.9534  128.5913 H   0  0  0  0  0  0  0  0  0  0  0  0
    9.4712   43.4529  130.1301 C   0  0  0  0  0  0  0  0  0  0  0  0
    9.0568   42.2388  129.7531 N   0  0  0  0  0  0  0  0  0  0  0  0
    9.6464   41.3073  130.5123 N   0  0  0  0  0  0  0  0  0  0  0  0
   10.4692   41.8863  131.4142 C   0  0  0  0  0  0  0  0  0  0  0  0
   11.2930   41.3991  132.4066 C   0  0  0  0  0  0  0  0  0  0  0  0
   12.0066   42.3089  133.1548 C   0  0  0  0  0  0  0  0  0  0  0  0
   11.9186   43.6750  132.9391 C   0  0  0  0  0  0  0  0  0  0  0  0
   11.0868   44.1294  131.9404 C   0  0  0  0  0  0  0  0  0  0  0  0
   10.3525   43.2592  131.1643 C   0  0  0  0  0  0  0  0  0  0  0  0
    9.5366   40.2700  130.4717 H   0  0  0  0  0  0  0  0  0  0  0  0
   12.6860   44.6009  133.7509 C   0  0  0  0  0  0  0  0  0  0  0  0
   13.2883   45.3504  134.3754 N   0  0  0  0  0  0  0  0  0  0  0  0
    7.4423   49.4791  128.8727 C   0  0  0  0  0  0  0  0  0  0  0  0
    8.6358   49.3128  129.5367 C   0  0  0  0  0  0  0  0  0  0  0  0
    8.9541   48.0618  130.0282 C   0  0  0  0  0  0  0  0  0  0  0  0
    8.1002   46.9984  129.8613 C   0  0  0  0  0  0  0  0  0  0  0  0
    6.8855   47.1641  129.1868 C   0  0  0  0  0  0  0  0  0  0  0  0
    6.5774   48.4099  128.7020 C   0  0  0  0  0  0  0  0  0  0  0  0
    6.8801   54.6609  126.9345 C   0  0  0  0  0  0  0  0  0  0  0  0
    7.3538   53.4293  127.5293 N   0  0  0  0  0  0  0  0  0  0  0  0
    6.4374   53.0825  128.5972 C   0  0  0  0  0  0  0  0  0  0  0  0
    6.8136   51.8331  129.3037 C   0  0  0  0  0  0  0  0  0  0  0  0
    7.1471   50.7955  128.3795 N   0  0  0  0  0  0  0  0  0  0  0  0
    7.1987   51.0203  126.9709 C   0  0  0  0  0  0  0  0  0  0  0  0
    7.3614   52.4135  126.4978 C   0  0  0  0  0  0  0  0  0  0  0  0
 23 24  1  0  0  0
 24 25  1  0  0  0
 25 26  1  0  0  0
 26 27  1  0  0  0
 27 28  1  0  0  0
 28 29  1  0  0  0
 27 17  1  0  0  0
 17 18  2  0  0  0
 18 19  1  0  0  0
 19 20  2  0  0  0
 20 21  1  0  0  0
 21 22  2  0  0  0
 20  1  1  0  0  0
  1  2  2  0  0  0
  1  3  1  0  0  0
  3  5  1  0  0  0
  5  6  2  0  0  0
  6  7  1  0  0  0
  7  8  1  0  0  0
  8  9  2  0  0  0
  9 10  1  0  0  0
 10 11  2  0  0  0
 11 12  1  0  0  0
 12 13  2  0  0  0
 11 15  1  0  0  0
 15 16  3  0  0  0
 29 24  1  0  0  0
 22 17  1  0  0  0
 13  5  1  0  0  0
 13  8  1  0  0  0
  3  4  1  0  0  0
  7 14  1  0  0  0
M  END
> <minimizedAffinity>
10.70816

> <CNNscore>
0.2178041488

> <CNNaffinity>
6.4831542969

> <CNN_VS>
1.4120578766

> <CNNaffinity_variance>
0.4470153749

$$$$
[H]c1c([H])c(N2C([H])([H])C([H])([H])N(C([H])([H])[H])C([H])([H])C2([H])[H])c([H])c([H])c1C(=O)N([H])c1nn([H])c2c([H])c([H])c(C#N)c([H])c12


 29 32  0  0  0  0  0  0  0  0999 V2000
    8.5268   47.2878  131.6327 C   0  0  0  0  0  0  0  0  0  0  0  0
    7.7844   46.2805  131.6029 O   0  0  0  0  0  0  0  0  0  0  0  0
    9.6267   47.3062  132.5054 N   0  0  0  0  0  0  0  0  0  0  0  0
   10.2576   48.1514  132.5386 H   0  0  0  0  0  0  0  0  0  0  0  0
    9.9244   46.1908  133.3658 C   0  0  0  0  0  0  0  0  0  0  0  0
   10.1163   46.1741  134.6889 N   0  0  0  0  0  0  0  0  0  0  0  0
   10.3686   44.9223  135.0902 N   0  0  0  0  0  0  0  0  0  0  0  0
   10.3493   44.0768  134.0364 C   0  0  0  0  0  0  0  0  0  0  0  0
   10.5408   42.7186  133.8977 C   0  0  0  0  0  0  0  0  0  0  0  0
   10.4436   42.1809  132.6335 C   0  0  0  0  0  0  0  0  0  0  0  0
   10.1639   42.9561  131.5195 C   0  0  0  0  0  0  0  0  0  0  0  0
    9.9780   44.3094  131.6916 C   0  0  0  0  0  0  0  0  0  0  0  0
   10.0645   44.8949  132.9361 C   0  0  0  0  0  0  0  0  0  0  0  0
   10.5604   44.5748  136.0558 H   0  0  0  0  0  0  0  0  0  0  0  0
   10.0717   42.3510  130.2039 C   0  0  0  0  0  0  0  0  0  0  0  0
   10.0006   41.8955  129.1542 N   0  0  0  0  0  0  0  0  0  0  0  0
    7.6601   50.5007  129.0803 C   0  0  0  0  0  0  0  0  0  0  0  0
    7.5036   49.2103  128.6297 C   0  0  0  0  0  0  0  0  0  0  0  0
    7.7934   48.1671  129.4873 C   0  0  0  0  0  0  0  0  0  0  0  0
    8.2303   48.4054  130.7680 C   0  0  0  0  0  0  0  0  0  0  0  0
    8.3908   49.7166  131.2295 C   0  0  0  0  0  0  0  0  0  0  0  0
    8.1007   50.7465  130.3710 C   0  0  0  0  0  0  0  0  0  0  0  0
    7.0434   54.6615  125.4428 C   0  0  0  0  0  0  0  0  0  0  0  0
    7.5314   53.7210  126.4289 N   0  0  0  0  0  0  0  0  0  0  0  0
    6.6279   53.7713  127.5610 C   0  0  0  0  0  0  0  0  0  0  0  0
    7.0196   52.8533  128.6590 C   0  0  0  0  0  0  0  0  0  0  0  0
    7.3511   51.5570  128.1573 N   0  0  0  0  0  0  0  0  0  0  0  0
    7.3873   51.2696  126.7596 C   0  0  0  0  0  0  0  0  0  0  0  0
    7.5357   52.4062  125.8229 C   0  0  0  0  0  0  0  0  0  0  0  0
 23 24  1  0  0  0
 24 25  1  0  0  0
 25 26  1  0  0  0
 26 27  1  0  0  0
 27 28  1  0  0  0
 28 29  1  0  0  0
 27 17  1  0  0  0
 17 18  2  0  0  0
 18 19  1  0  0  0
 19 20  2  0  0  0
 20 21  1  0  0  0
 21 22  2  0  0  0
 20  1  1  0  0  0
  1  2  2  0  0  0
  1  3  1  0  0  0
  3  5  1  0  0  0
  5  6  2  0  0  0
  6  7  1  0  0  0
  7  8  1  0  0  0
  8  9  2  0  0  0
  9 10  1  0  0  0
 10 11  2  0  0  0
 11 12  1  0  0  0
 12 13  2  0  0  0
 11 15  1  0  0  0
 15 16  3  0  0  0
 29 24  1  0  0  0
 22 17  1  0  0  0
 13  5  1  0  0  0
 13  8  1  0  0  0
  3  4  1  0  0  0
  7 14  1  0  0  0
M  END
> <minimizedAffinity>
8.97568

> <CNNscore>
0.1392270029

> <CNNaffinity>
6.5116410255

> <CNN_VS>
0.9065962434

> <CNNaffinity_variance>
0.6598030925

$$$$
[H]c1c([H])c(N2C([H])([H])C([H])([H])N(C([H])([H])[H])C([H])([H])C2([H])[H])c([H])c([H])c1C(=O)N([H])c1nn([H])c2c([H])c([H])c(C#N)c([H])c12


 29 32  0  0  0  0  0  0  0  0999 V2000
   11.5958   46.8116  128.7667 C   0  0  0  0  0  0  0  0  0  0  0  0
   11.3457   47.1071  127.5764 O   0  0  0  0  0  0  0  0  0  0  0  0
   12.9316   46.7578  129.1960 N   0  0  0  0  0  0  0  0  0  0  0  0
   13.1525   46.5084  130.1974 H   0  0  0  0  0  0  0  0  0  0  0  0
   14.0229   47.0385  128.2998 C   0  0  0  0  0  0  0  0  0  0  0  0
   15.0736   47.8461  128.4775 N   0  0  0  0  0  0  0  0  0  0  0  0
   15.8532   47.8144  127.3899 N   0  0  0  0  0  0  0  0  0  0  0  0
   15.3340   46.9805  126.4622 C   0  0  0  0  0  0  0  0  0  0  0  0
   15.7267   46.5939  125.1984 C   0  0  0  0  0  0  0  0  0  0  0  0
   14.9276   45.6994  124.5217 C   0  0  0  0  0  0  0  0  0  0  0  0
   13.7613   45.1886  125.0688 C   0  0  0  0  0  0  0  0  0  0  0  0
   13.3967   45.5947  126.3329 C   0  0  0  0  0  0  0  0  0  0  0  0
   14.1629   46.4873  127.0507 C   0  0  0  0  0  0  0  0  0  0  0  0
   16.7441   48.3290  127.2128 H   0  0  0  0  0  0  0  0  0  0  0  0
   12.9459   44.2491  124.3221 C   0  0  0  0  0  0  0  0  0  0  0  0
   12.3174   43.4886  123.7381 N   0  0  0  0  0  0  0  0  0  0  0  0
    8.4074   45.9574  131.3537 C   0  0  0  0  0  0  0  0  0  0  0  0
    8.8157   45.0136  130.4398 C   0  0  0  0  0  0  0  0  0  0  0  0
    9.8687   45.3152  129.5984 C   0  0  0  0  0  0  0  0  0  0  0  0
   10.5016   46.5329  129.6665 C   0  0  0  0  0  0  0  0  0  0  0  0
   10.0887   47.4952  130.5947 C   0  0  0  0  0  0  0  0  0  0  0  0
    9.0422   47.1871  131.4264 C   0  0  0  0  0  0  0  0  0  0  0  0
    4.1468   44.0760  134.3920 C   0  0  0  0  0  0  0  0  0  0  0  0
    5.1540   44.3034  133.3778 N   0  0  0  0  0  0  0  0  0  0  0  0
    5.0137   45.6734  132.9262 C   0  0  0  0  0  0  0  0  0  0  0  0
    5.9888   46.0404  131.8698 C   0  0  0  0  0  0  0  0  0  0  0  0
    7.3075   45.6062  132.2083 N   0  0  0  0  0  0  0  0  0  0  0  0
    7.5754   44.8288  133.3750 C   0  0  0  0  0  0  0  0  0  0  0  0
    6.4503   44.0840  133.9839 C   0  0  0  0  0  0  0  0  0  0  0  0
 23 24  1  0  0  0
 24 25  1  0  0  0
 25 26  1  0  0  0
 26 27  1  0  0  0
 27 28  1  0  0  0
 28 29  1  0  0  0
 27 17  1  0  0  0
 17 18  2  0  0  0
 18 19  1  0  0  0
 19 20  2  0  0  0
 20 21  1  0  0  0
 21 22  2  0  0  0
 20  1  1  0  0  0
  1  2  2  0  0  0
  1  3  1  0  0  0
  3  5  1  0  0  0
  5  6  2  0  0  0
  6  7  1  0  0  0
  7  8  1  0  0  0
  8  9  2  0  0  0
  9 10  1  0  0  0
 10 11  2  0  0  0
 11 12  1  0  0  0
 12 13  2  0  0  0
 11 15  1  0  0  0
 15 16  3  0  0  0
 29 24  1  0  0  0
 22 17  1  0  0  0
 13  5  1  0  0  0
 13  8  1  0  0  0
  3  4  1  0  0  0
  7 14  1  0  0  0
M  END
> <minimizedAffinity>
196.72614

> <CNNscore>
0.0307528097

> <CNNaffinity>
5.0389046669

> <CNN_VS>
0.1549604833

> <CNNaffinity_variance>
1.7797937393

$$$$
[H]c1c([H])c(N2C([H])([H])C([H])([H])N(C([H])([H])[H])C([H])([H])C2([H])[H])c([H])c([H])c1C(=O)N([H])c1nn([H])c2c([H])c([H])c(C#N)c([H])c12


 29 32  0  0  0  0  0  0  0  0999 V2000
    9.1565   46.2594  130.9979 C   0  0  0  0  0  0  0  0  0  0  0  0
    8.8422   46.5059  129.8117 O   0  0  0  0  0  0  0  0  0  0  0  0
   10.1967   45.3532  131.2598 N   0  0  0  0  0  0  0  0  0  0  0  0
   10.4682   45.1380  132.2566 H   0  0  0  0  0  0  0  0  0  0  0  0
   10.9147   44.7023  130.1950 C   0  0  0  0  0  0  0  0  0  0  0  0
   10.7491   44.8168  128.8731 N   0  0  0  0  0  0  0  0  0  0  0  0
   11.6314   44.0337  128.2406 N   0  0  0  0  0  0  0  0  0  0  0  0
   12.4058   43.3795  129.1339 C   0  0  0  0  0  0  0  0  0  0  0  0
   13.4405   42.4756  129.0198 C   0  0  0  0  0  0  0  0  0  0  0  0
   14.0130   42.0031  130.1799 C   0  0  0  0  0  0  0  0  0  0  0  0
   13.5829   42.4057  131.4342 C   0  0  0  0  0  0  0  0  0  0  0  0
   12.5473   43.3094  131.5140 C   0  0  0  0  0  0  0  0  0  0  0  0
   11.9420   43.8117  130.3825 C   0  0  0  0  0  0  0  0  0  0  0  0
   11.7615   43.8978  127.2138 H   0  0  0  0  0  0  0  0  0  0  0  0
   14.2116   41.8826  132.6327 C   0  0  0  0  0  0  0  0  0  0  0  0
   14.7073   41.4464  133.5700 N   0  0  0  0  0  0  0  0  0  0  0  0
    7.0292   48.1311  134.0898 C   0  0  0  0  0  0  0  0  0  0  0  0
    6.4929   47.0306  133.4619 C   0  0  0  0  0  0  0  0  0  0  0  0
    7.2111   46.4287  132.4472 C   0  0  0  0  0  0  0  0  0  0  0  0
    8.4387   46.9140  132.0660 C   0  0  0  0  0  0  0  0  0  0  0  0
    8.9869   48.0333  132.7022 C   0  0  0  0  0  0  0  0  0  0  0  0
    8.2668   48.6247  133.7089 C   0  0  0  0  0  0  0  0  0  0  0  0
    4.0855   49.9467  138.4443 C   0  0  0  0  0  0  0  0  0  0  0  0
    4.7754   49.1520  137.4506 N   0  0  0  0  0  0  0  0  0  0  0  0
    4.2083   49.4845  136.1589 C   0  0  0  0  0  0  0  0  0  0  0  0
    4.8243   48.7278  135.0411 C   0  0  0  0  0  0  0  0  0  0  0  0
    6.2500   48.7295  135.1376 N   0  0  0  0  0  0  0  0  0  0  0  0
    6.9357   49.3091  136.2474 C   0  0  0  0  0  0  0  0  0  0  0  0
    6.1808   49.4947  137.5071 C   0  0  0  0  0  0  0  0  0  0  0  0
 23 24  1  0  0  0
 24 25  1  0  0  0
 25 26  1  0  0  0
 26 27  1  0  0  0
 27 28  1  0  0  0
 28 29  1  0  0  0
 27 17  1  0  0  0
 17 18  2  0  0  0
 18 19  1  0  0  0
 19 20  2  0  0  0
 20 21  1  0  0  0
 21 22  2  0  0  0
 20  1  1  0  0  0
  1  2  2  0  0  0
  1  3  1  0  0  0
  3  5  1  0  0  0
  5  6  2  0  0  0
  6  7  1  0  0  0
  7  8  1  0  0  0
  8  9  2  0  0  0
  9 10  1  0  0  0
 10 11  2  0  0  0
 11 12  1  0  0  0
 12 13  2  0  0  0
 11 15  1  0  0  0
 15 16  3  0  0  0
 29 24  1  0  0  0
 22 17  1  0  0  0
 13  5  1  0  0  0
 13  8  1  0  0  0
  3  4  1  0  0  0
  7 14  1  0  0  0
M  END
> <minimizedAffinity>
116.99945

> <CNNscore>
0.0073358719

> <CNNaffinity>
5.4247679710

> <CNN_VS>
0.0397954024

> <CNNaffinity_variance>
1.2300742865

$$$$
[H]OC(=O)[C@@]([H])(N([H])C(=O)[C@@]([H])(N([H])C(=O)[C@@]([H])(N([H])C(=O)[C@@]([H])(N([H])C(=O)[C@@]([H])(N([H])C(=O)[C@@]([H])(N([H])C(=O)c1c(O[H])c2c([H])c([H])c([H])c([H])c2n1[H])C([H])([H])c1c([H])c([H])c([H])c([H])c1[H])C([H])([H])C([H])(C([H])([H])[H])C([H])([H])[H])C([H])(C([H])([H])[H])C([H])([H])[H])C([H])(C([H])([H])[H])C([H])([H])[H])C([H])(C([H])([H])[H])C([H])([H])[H])C([H])([H])c1c([H])c([H])c([H])c([H])c1[H]


 73 76  0  0  0  0  0  0  0  0999 V2000
    9.5851   47.5149  130.1267 C   0  0  0  0  0  0  0  0  0  0  0  0
    9.3168   47.1769  131.2900 O   0  0  0  0  0  0  0  0  0  0  0  0
    9.6278   46.6749  128.9983 N   0  0  0  0  0  0  0  0  0  0  0  0
    9.8351   47.0596  128.0595 H   0  0  0  0  0  0  0  0  0  0  0  0
    9.3815   45.2178  129.0519 C   0  0  0  0  0  0  0  0  0  0  0  0
   10.5121   44.5815  129.7064 C   0  0  0  0  0  0  0  0  0  0  0  0
   10.5715   44.6735  130.9819 O   0  0  0  0  0  0  0  0  0  0  0  0
   11.5702   43.8648  129.0809 N   0  0  0  0  0  0  0  0  0  0  0  0
   11.5350   43.7341  128.0558 H   0  0  0  0  0  0  0  0  0  0  0  0
   12.6599   43.3353  129.9289 C   0  0  0  0  0  0  0  0  0  0  0  0
   12.0960   42.8688  131.2225 C   0  0  0  0  0  0  0  0  0  0  0  0
   11.1856   41.9865  131.1254 O   0  0  0  0  0  0  0  0  0  0  0  0
   12.5380   43.3598  132.4715 N   0  0  0  0  0  0  0  0  0  0  0  0
   13.2974   44.0860  132.4517 H   0  0  0  0  0  0  0  0  0  0  0  0
   12.0070   42.9170  133.7210 C   0  0  0  0  0  0  0  0  0  0  0  0
   10.5366   42.8099  133.7282 C   0  0  0  0  0  0  0  0  0  0  0  0
    9.9688   41.9152  134.4142 O   0  0  0  0  0  0  0  0  0  0  0  0
    9.6872   43.6717  132.9878 N   0  0  0  0  0  0  0  0  0  0  0  0
   10.1142   44.4194  132.4199 H   0  0  0  0  0  0  0  0  0  0  0  0
    8.2461   43.5507  132.9959 C   0  0  0  0  0  0  0  0  0  0  0  0
    7.7823   42.6599  131.8917 C   0  0  0  0  0  0  0  0  0  0  0  0
    8.1702   42.8416  130.5737 O   0  0  0  0  0  0  0  0  0  0  0  0
    7.0031   41.6856  132.1115 O   0  0  0  0  0  0  0  0  0  0  0  0
    7.5248   43.0652  129.8279 H   0  0  0  0  0  0  0  0  0  0  0  0
    7.5448   44.8644  133.0421 C   0  0  0  0  0  0  0  0  0  0  0  0
    8.0964   45.8000  134.0303 C   0  0  0  0  0  0  0  0  0  0  0  0
    7.5978   47.0684  134.1721 C   0  0  0  0  0  0  0  0  0  0  0  0
    8.1536   47.9160  135.1205 C   0  0  0  0  0  0  0  0  0  0  0  0
    9.1961   47.5024  135.9199 C   0  0  0  0  0  0  0  0  0  0  0  0
    9.6756   46.2224  135.7546 C   0  0  0  0  0  0  0  0  0  0  0  0
    9.1277   45.3841  134.8185 C   0  0  0  0  0  0  0  0  0  0  0  0
   12.4874   43.7865  134.8800 C   0  0  0  0  0  0  0  0  0  0  0  0
   11.7463   43.5771  136.1490 C   0  0  0  0  0  0  0  0  0  0  0  0
   12.6685   45.2155  134.4578 C   0  0  0  0  0  0  0  0  0  0  0  0
   13.6641   44.4402  130.1120 C   0  0  0  0  0  0  0  0  0  0  0  0
   14.7496   44.3739  129.0956 C   0  0  0  0  0  0  0  0  0  0  0  0
   13.0117   45.7882  130.2212 C   0  0  0  0  0  0  0  0  0  0  0  0
    9.2885   44.7438  127.5723 C   0  0  0  0  0  0  0  0  0  0  0  0
   10.3872   45.3348  126.7552 C   0  0  0  0  0  0  0  0  0  0  0  0
    9.3432   43.2444  127.5848 C   0  0  0  0  0  0  0  0  0  0  0  0
    9.9070   48.9773  129.8381 C   0  0  0  0  0  0  0  0  0  0  0  0
    8.8190   49.5848  129.1660 N   0  0  0  0  0  0  0  0  0  0  0  0
    7.9675   50.5628  129.7192 C   0  0  0  0  0  0  0  0  0  0  0  0
    8.2288   50.9614  130.9083 O   0  0  0  0  0  0  0  0  0  0  0  0
    8.5863   49.2886  128.1415 H   0  0  0  0  0  0  0  0  0  0  0  0
    6.8112   51.1638  129.0866 C   0  0  0  0  0  0  0  0  0  0  0  0
    7.1670   51.8871  127.8530 N   0  0  0  0  0  0  0  0  0  0  0  0
    7.0893   53.2850  127.7723 C   0  0  0  0  0  0  0  0  0  0  0  0
    6.7090   53.9759  128.7461 O   0  0  0  0  0  0  0  0  0  0  0  0
    7.4820   51.3458  127.0226 H   0  0  0  0  0  0  0  0  0  0  0  0
    7.4582   53.9738  126.5374 C   0  0  0  0  0  0  0  0  0  0  0  0
    8.1166   53.4367  125.4887 N   0  0  0  0  0  0  0  0  0  0  0  0
    8.2913   54.3513  124.5286 C   0  0  0  0  0  0  0  0  0  0  0  0
    8.9029   54.3047  123.2684 C   0  0  0  0  0  0  0  0  0  0  0  0
    8.9397   55.4275  122.4742 C   0  0  0  0  0  0  0  0  0  0  0  0
    8.3767   56.6048  122.9131 C   0  0  0  0  0  0  0  0  0  0  0  0
    7.7720   56.6371  124.1653 C   0  0  0  0  0  0  0  0  0  0  0  0
    7.7359   55.5212  124.9529 C   0  0  0  0  0  0  0  0  0  0  0  0
    7.2071   55.2893  126.2229 C   0  0  0  0  0  0  0  0  0  0  0  0
    6.5701   56.2691  126.9408 O   0  0  0  0  0  0  0  0  0  0  0  0
    8.4447   52.4469  125.4333 H   0  0  0  0  0  0  0  0  0  0  0  0
    6.1653   56.2018  127.8431 H   0  0  0  0  0  0  0  0  0  0  0  0
    5.4913   50.5521  129.0272 C   0  0  0  0  0  0  0  0  0  0  0  0
    5.2704   49.1372  129.2005 C   0  0  0  0  0  0  0  0  0  0  0  0
    6.2632   48.2216  128.9717 C   0  0  0  0  0  0  0  0  0  0  0  0
    6.1006   46.8671  129.1280 C   0  0  0  0  0  0  0  0  0  0  0  0
    4.8816   46.3586  129.5370 C   0  0  0  0  0  0  0  0  0  0  0  0
    3.8754   47.2520  129.7712 C   0  0  0  0  0  0  0  0  0  0  0  0
    4.0422   48.6083  129.6141 C   0  0  0  0  0  0  0  0  0  0  0  0
   10.3659   49.5454  131.1072 C   0  0  0  0  0  0  0  0  0  0  0  0
   10.0822   50.1274  133.4264 C   0  0  0  0  0  0  0  0  0  0  0  0
   10.1022   48.9376  132.4109 C   0  0  0  0  0  0  0  0  0  0  0  0
   11.0910   47.9900  132.9838 C   0  0  0  0  0  0  0  0  0  0  0  0
 71 72  1  0  0  0
 72 73  1  0  0  0
 72 70  1  0  0  0
 70 41  1  0  0  0
 41 42  1  0  0  0
 42 43  1  0  0  0
 43 44  2  0  0  0
 43 46  1  0  0  0
 46 63  1  0  0  0
 63 64  1  0  0  0
 64 65  2  0  0  0
 65 66  1  0  0  0
 66 67  2  0  0  0
 67 68  1  0  0  0
 68 69  2  0  0  0
 46 47  1  0  0  0
 47 48  1  0  0  0
 48 49  2  0  0  0
 48 51  1  0  0  0
 51 52  1  0  0  0
 52 53  1  0  0  0
 53 54  2  0  0  0
 54 55  1  0  0  0
 55 56  2  0  0  0
 56 57  1  0  0  0
 57 58  2  0  0  0
 58 59  1  0  0  0
 59 60  1  0  0  0
 41  1  1  0  0  0
  1  2  2  0  0  0
  1  3  1  0  0  0
  3  5  1  0  0  0
  5 38  1  0  0  0
 38 39  1  0  0  0
 38 40  1  0  0  0
  5  6  1  0  0  0
  6  7  2  0  0  0
  6  8  1  0  0  0
  8 10  1  0  0  0
 10 35  1  0  0  0
 35 36  1  0  0  0
 35 37  1  0  0  0
 10 11  1  0  0  0
 11 12  2  0  0  0
 11 13  1  0  0  0
 13 15  1  0  0  0
 15 32  1  0  0  0
 32 33  1  0  0  0
 32 34  1  0  0  0
 15 16  1  0  0  0
 16 17  2  0  0  0
 16 18  1  0  0  0
 18 20  1  0  0  0
 20 25  1  0  0  0
 25 26  1  0  0  0
 26 27  2  0  0  0
 27 28  1  0  0  0
 28 29  2  0  0  0
 29 30  1  0  0  0
 30 31  2  0  0  0
 20 21  1  0  0  0
 21 22  1  0  0  0
 21 23  2  0  0  0
 69 64  1  0  0  0
 59 51  2  0  0  0
 31 26  1  0  0  0
 58 53  1  0  0  0
 42 45  1  0  0  0
 47 50  1  0  0  0
 52 61  1  0  0  0
 60 62  1  0  0  0
  3  4  1  0  0  0
  8  9  1  0  0  0
 13 14  1  0  0  0
 18 19  1  0  0  0
 22 24  1  0  0  0
M  END
> <minimizedAffinity>
9.87144

> <CNNscore>
0.4748591185

> <CNNaffinity>
8.7255268097

> <CNN_VS>
4.1433959007

> <CNNaffinity_variance>
0.5642369986

$$$$
[H]OC(=O)[C@@]([H])(N([H])C(=O)[C@@]([H])(N([H])C(=O)[C@@]([H])(N([H])C(=O)[C@@]([H])(N([H])C(=O)[C@@]([H])(N([H])C(=O)[C@@]([H])(N([H])C(=O)c1c(O[H])c2c([H])c([H])c([H])c([H])c2n1[H])C([H])([H])c1c([H])c([H])c([H])c([H])c1[H])C([H])([H])C([H])(C([H])([H])[H])C([H])([H])[H])C([H])(C([H])([H])[H])C([H])([H])[H])C([H])(C([H])([H])[H])C([H])([H])[H])C([H])(C([H])([H])[H])C([H])([H])[H])C([H])([H])c1c([H])c([H])c([H])c([H])c1[H]


 73 76  0  0  0  0  0  0  0  0999 V2000
   16.4489   41.6243  137.4912 C   0  0  0  0  0  0  0  0  0  0  0  0
   15.7001   40.7885  138.0206 O   0  0  0  0  0  0  0  0  0  0  0  0
   17.8204   41.4668  137.2176 N   0  0  0  0  0  0  0  0  0  0  0  0
   18.3552   42.2165  136.7441 H   0  0  0  0  0  0  0  0  0  0  0  0
   18.5910   40.2534  137.5647 C   0  0  0  0  0  0  0  0  0  0  0  0
   18.5415   40.0707  139.0054 C   0  0  0  0  0  0  0  0  0  0  0  0
   19.1842   40.9162  139.7201 O   0  0  0  0  0  0  0  0  0  0  0  0
   17.8551   39.0457  139.7146 N   0  0  0  0  0  0  0  0  0  0  0  0
   17.2914   38.3684  139.1737 H   0  0  0  0  0  0  0  0  0  0  0  0
   17.9749   39.0074  141.1880 C   0  0  0  0  0  0  0  0  0  0  0  0
   18.8499   37.8726  141.5825 C   0  0  0  0  0  0  0  0  0  0  0  0
   20.0503   38.1894  141.8572 O   0  0  0  0  0  0  0  0  0  0  0  0
   18.3879   36.5394  141.6554 N   0  0  0  0  0  0  0  0  0  0  0  0
   17.3786   36.3752  141.4129 H   0  0  0  0  0  0  0  0  0  0  0  0
   19.2174   35.4413  142.0366 C   0  0  0  0  0  0  0  0  0  0  0  0
   19.8848   34.7872  140.8963 C   0  0  0  0  0  0  0  0  0  0  0  0
   20.4954   33.6946  141.0598 O   0  0  0  0  0  0  0  0  0  0  0  0
   19.8905   35.3229  139.5827 N   0  0  0  0  0  0  0  0  0  0  0  0
   19.3966   36.2115  139.4084 H   0  0  0  0  0  0  0  0  0  0  0  0
   20.5567   34.6762  138.4740 C   0  0  0  0  0  0  0  0  0  0  0  0
   21.6704   35.5245  137.9562 C   0  0  0  0  0  0  0  0  0  0  0  0
   22.1941   35.3720  136.6822 O   0  0  0  0  0  0  0  0  0  0  0  0
   22.1942   36.4333  138.6663 O   0  0  0  0  0  0  0  0  0  0  0  0
   23.1499   35.0956  136.5013 H   0  0  0  0  0  0  0  0  0  0  0  0
   19.6187   34.2058  137.4162 C   0  0  0  0  0  0  0  0  0  0  0  0
   18.2177   34.5747  137.6552 C   0  0  0  0  0  0  0  0  0  0  0  0
   17.8279   35.8850  137.7485 C   0  0  0  0  0  0  0  0  0  0  0  0
   16.4914   36.1829  137.9759 C   0  0  0  0  0  0  0  0  0  0  0  0
   15.5528   35.1838  138.1086 C   0  0  0  0  0  0  0  0  0  0  0  0
   15.9743   33.8768  138.0098 C   0  0  0  0  0  0  0  0  0  0  0  0
   17.2939   33.5810  137.7851 C   0  0  0  0  0  0  0  0  0  0  0  0
   18.4523   34.4168  142.8703 C   0  0  0  0  0  0  0  0  0  0  0  0
   17.1583   34.9088  143.4062 C   0  0  0  0  0  0  0  0  0  0  0  0
   19.3498   33.7308  143.8588 C   0  0  0  0  0  0  0  0  0  0  0  0
   16.5853   38.8752  141.7485 C   0  0  0  0  0  0  0  0  0  0  0  0
   15.7998   37.8302  141.0367 C   0  0  0  0  0  0  0  0  0  0  0  0
   16.5873   38.7256  143.2425 C   0  0  0  0  0  0  0  0  0  0  0  0
   20.0547   40.5314  137.1143 C   0  0  0  0  0  0  0  0  0  0  0  0
   20.7132   41.5123  138.0245 C   0  0  0  0  0  0  0  0  0  0  0  0
   20.7700   39.2125  137.0994 C   0  0  0  0  0  0  0  0  0  0  0  0
   15.8728   42.9737  137.0756 C   0  0  0  0  0  0  0  0  0  0  0  0
   14.7783   42.7789  136.1989 N   0  0  0  0  0  0  0  0  0  0  0  0
   14.1891   43.7811  135.4014 C   0  0  0  0  0  0  0  0  0  0  0  0
   14.7161   44.9480  135.4438 O   0  0  0  0  0  0  0  0  0  0  0  0
   14.3236   41.7899  136.1174 H   0  0  0  0  0  0  0  0  0  0  0  0
   13.0344   43.6357  134.5389 C   0  0  0  0  0  0  0  0  0  0  0  0
   12.5344   44.9356  134.0573 N   0  0  0  0  0  0  0  0  0  0  0  0
   11.1693   45.1575  133.8249 C   0  0  0  0  0  0  0  0  0  0  0  0
   10.3192   44.2564  134.0131 O   0  0  0  0  0  0  0  0  0  0  0  0
   13.2121   45.7055  133.8850 H   0  0  0  0  0  0  0  0  0  0  0  0
   10.7038   46.4610  133.3562 C   0  0  0  0  0  0  0  0  0  0  0  0
   10.7817   46.9308  132.0933 N   0  0  0  0  0  0  0  0  0  0  0  0
   10.2637   48.1617  132.0198 C   0  0  0  0  0  0  0  0  0  0  0  0
   10.1085   49.0684  130.9624 C   0  0  0  0  0  0  0  0  0  0  0  0
    9.5298   50.2970  131.1825 C   0  0  0  0  0  0  0  0  0  0  0  0
    9.1002   50.6441  132.4437 C   0  0  0  0  0  0  0  0  0  0  0  0
    9.2592   49.7345  133.4840 C   0  0  0  0  0  0  0  0  0  0  0  0
    9.8339   48.5146  133.2640 C   0  0  0  0  0  0  0  0  0  0  0  0
   10.1093   47.4432  134.1140 C   0  0  0  0  0  0  0  0  0  0  0  0
    9.7996   47.4703  135.4499 O   0  0  0  0  0  0  0  0  0  0  0  0
   11.1892   46.4084  131.2861 H   0  0  0  0  0  0  0  0  0  0  0  0
    9.9548   46.7649  136.1288 H   0  0  0  0  0  0  0  0  0  0  0  0
   12.8571   42.5633  133.5702 C   0  0  0  0  0  0  0  0  0  0  0  0
   12.1613   42.7393  132.3189 C   0  0  0  0  0  0  0  0  0  0  0  0
   11.0282   42.0297  132.0208 C   0  0  0  0  0  0  0  0  0  0  0  0
   10.3307   42.1672  130.8460 C   0  0  0  0  0  0  0  0  0  0  0  0
   10.7639   43.0609  129.8840 C   0  0  0  0  0  0  0  0  0  0  0  0
   11.8921   43.7803  130.1579 C   0  0  0  0  0  0  0  0  0  0  0  0
   12.5879   43.6402  131.3363 C   0  0  0  0  0  0  0  0  0  0  0  0
   15.6651   43.7212  138.3174 C   0  0  0  0  0  0  0  0  0  0  0  0
   16.2286   42.7966  140.4680 C   0  0  0  0  0  0  0  0  0  0  0  0
   16.6671   43.8286  139.3772 C   0  0  0  0  0  0  0  0  0  0  0  0
   16.8028   45.1058  140.1217 C   0  0  0  0  0  0  0  0  0  0  0  0
 71 72  1  0  0  0
 72 73  1  0  0  0
 72 70  1  0  0  0
 70 41  1  0  0  0
 41 42  1  0  0  0
 42 43  1  0  0  0
 43 44  2  0  0  0
 43 46  1  0  0  0
 46 63  1  0  0  0
 63 64  1  0  0  0
 64 65  2  0  0  0
 65 66  1  0  0  0
 66 67  2  0  0  0
 67 68  1  0  0  0
 68 69  2  0  0  0
 46 47  1  0  0  0
 47 48  1  0  0  0
 48 49  2  0  0  0
 48 51  1  0  0  0
 51 52  1  0  0  0
 52 53  1  0  0  0
 53 54  2  0  0  0
 54 55  1  0  0  0
 55 56  2  0  0  0
 56 57  1  0  0  0
 57 58  2  0  0  0
 58 59  1  0  0  0
 59 60  1  0  0  0
 41  1  1  0  0  0
  1  2  2  0  0  0
  1  3  1  0  0  0
  3  5  1  0  0  0
  5 38  1  0  0  0
 38 39  1  0  0  0
 38 40  1  0  0  0
  5  6  1  0  0  0
  6  7  2  0  0  0
  6  8  1  0  0  0
  8 10  1  0  0  0
 10 35  1  0  0  0
 35 36  1  0  0  0
 35 37  1  0  0  0
 10 11  1  0  0  0
 11 12  2  0  0  0
 11 13  1  0  0  0
 13 15  1  0  0  0
 15 32  1  0  0  0
 32 33  1  0  0  0
 32 34  1  0  0  0
 15 16  1  0  0  0
 16 17  2  0  0  0
 16 18  1  0  0  0
 18 20  1  0  0  0
 20 25  1  0  0  0
 25 26  1  0  0  0
 26 27  2  0  0  0
 27 28  1  0  0  0
 28 29  2  0  0  0
 29 30  1  0  0  0
 30 31  2  0  0  0
 20 21  1  0  0  0
 21 22  1  0  0  0
 21 23  2  0  0  0
 69 64  1  0  0  0
 59 51  2  0  0  0
 31 26  1  0  0  0
 58 53  1  0  0  0
 42 45  1  0  0  0
 47 50  1  0  0  0
 52 61  1  0  0  0
 60 62  1  0  0  0
  3  4  1  0  0  0
  8  9  1  0  0  0
 13 14  1  0  0  0
 18 19  1  0  0  0
 22 24  1  0  0  0
M  END
> <minimizedAffinity>
7.95932

> <CNNscore>
0.4668866694

> <CNNaffinity>
7.5303430557

> <CNN_VS>
3.5158166885

> <CNNaffinity_variance>
0.6664834619

$$$$
[H]OC(=O)[C@@]([H])(N([H])C(=O)[C@@]([H])(N([H])C(=O)[C@@]([H])(N([H])C(=O)[C@@]([H])(N([H])C(=O)[C@@]([H])(N([H])C(=O)[C@@]([H])(N([H])C(=O)c1c(O[H])c2c([H])c([H])c([H])c([H])c2n1[H])C([H])([H])c1c([H])c([H])c([H])c([H])c1[H])C([H])([H])C([H])(C([H])([H])[H])C([H])([H])[H])C([H])(C([H])([H])[H])C([H])([H])[H])C([H])(C([H])([H])[H])C([H])([H])[H])C([H])(C([H])([H])[H])C([H])([H])[H])C([H])([H])c1c([H])c([H])c([H])c([H])c1[H]


 73 76  0  0  0  0  0  0  0  0999 V2000
    8.0690   50.0589  129.5008 C   0  0  0  0  0  0  0  0  0  0  0  0
    8.2340   49.2590  128.5667 O   0  0  0  0  0  0  0  0  0  0  0  0
    8.7111   50.0298  130.7528 N   0  0  0  0  0  0  0  0  0  0  0  0
    8.5258   50.7632  131.4600 H   0  0  0  0  0  0  0  0  0  0  0  0
    9.6804   48.9870  131.1523 C   0  0  0  0  0  0  0  0  0  0  0  0
    8.9896   47.7097  131.2061 C   0  0  0  0  0  0  0  0  0  0  0  0
    9.7173   46.6567  131.2280 O   0  0  0  0  0  0  0  0  0  0  0  0
    7.5827   47.4987  131.2341 N   0  0  0  0  0  0  0  0  0  0  0  0
    6.9632   48.3262  131.2592 H   0  0  0  0  0  0  0  0  0  0  0  0
    7.0791   46.1083  131.2359 C   0  0  0  0  0  0  0  0  0  0  0  0
    7.7326   45.3483  132.3334 C   0  0  0  0  0  0  0  0  0  0  0  0
    7.9874   46.0256  133.3789 O   0  0  0  0  0  0  0  0  0  0  0  0
    8.0448   43.9741  132.2322 N   0  0  0  0  0  0  0  0  0  0  0  0
    7.7934   43.4977  131.3298 H   0  0  0  0  0  0  0  0  0  0  0  0
    8.6690   43.2321  133.2805 C   0  0  0  0  0  0  0  0  0  0  0  0
   10.1288   43.4271  133.3479 C   0  0  0  0  0  0  0  0  0  0  0  0
   10.7812   42.9990  134.3402 O   0  0  0  0  0  0  0  0  0  0  0  0
   10.8756   44.0895  132.3399 N   0  0  0  0  0  0  0  0  0  0  0  0
   10.3782   44.4479  131.5104 H   0  0  0  0  0  0  0  0  0  0  0  0
   12.3064   44.2827  132.4219 C   0  0  0  0  0  0  0  0  0  0  0  0
   12.6315   45.5227  133.1866 C   0  0  0  0  0  0  0  0  0  0  0  0
   12.2536   46.7848  132.7566 O   0  0  0  0  0  0  0  0  0  0  0  0
   13.2756   45.4776  134.2763 O   0  0  0  0  0  0  0  0  0  0  0  0
   12.9130   47.5102  132.5080 H   0  0  0  0  0  0  0  0  0  0  0  0
   12.9893   44.1959  131.1006 C   0  0  0  0  0  0  0  0  0  0  0  0
   12.0697   44.1195  129.9584 C   0  0  0  0  0  0  0  0  0  0  0  0
   12.0738   45.0693  128.9708 C   0  0  0  0  0  0  0  0  0  0  0  0
   11.1844   44.9534  127.9114 C   0  0  0  0  0  0  0  0  0  0  0  0
   10.3000   43.9002  127.8375 C   0  0  0  0  0  0  0  0  0  0  0  0
   10.3195   42.9613  128.8444 C   0  0  0  0  0  0  0  0  0  0  0  0
   11.1974   43.0745  129.8913 C   0  0  0  0  0  0  0  0  0  0  0  0
    8.3292   41.7460  133.2018 C   0  0  0  0  0  0  0  0  0  0  0  0
    7.9607   41.2745  131.8434 C   0  0  0  0  0  0  0  0  0  0  0  0
    7.4039   41.3335  134.3094 C   0  0  0  0  0  0  0  0  0  0  0  0
    7.3754   45.5213  129.8831 C   0  0  0  0  0  0  0  0  0  0  0  0
    8.1040   46.4831  129.0113 C   0  0  0  0  0  0  0  0  0  0  0  0
    8.0260   44.1715  129.9798 C   0  0  0  0  0  0  0  0  0  0  0  0
   10.1756   49.3835  132.5736 C   0  0  0  0  0  0  0  0  0  0  0  0
    9.7040   50.7506  132.9382 C   0  0  0  0  0  0  0  0  0  0  0  0
    9.6652   48.3419  133.5254 C   0  0  0  0  0  0  0  0  0  0  0  0
    7.0824   51.2081  129.3235 C   0  0  0  0  0  0  0  0  0  0  0  0
    7.2109   51.7550  128.0239 N   0  0  0  0  0  0  0  0  0  0  0  0
    7.1929   53.1309  127.7171 C   0  0  0  0  0  0  0  0  0  0  0  0
    7.0961   53.9482  128.6988 O   0  0  0  0  0  0  0  0  0  0  0  0
    7.3237   51.0871  127.1679 H   0  0  0  0  0  0  0  0  0  0  0  0
    7.2618   53.7262  126.3983 C   0  0  0  0  0  0  0  0  0  0  0  0
    6.0856   54.5644  126.1057 N   0  0  0  0  0  0  0  0  0  0  0  0
    6.0664   55.9342  126.4059 C   0  0  0  0  0  0  0  0  0  0  0  0
    7.0485   56.5001  126.9403 O   0  0  0  0  0  0  0  0  0  0  0  0
    5.2500   54.1274  125.6670 H   0  0  0  0  0  0  0  0  0  0  0  0
    4.8881   56.7405  126.0948 C   0  0  0  0  0  0  0  0  0  0  0  0
    4.0947   57.3730  126.9849 N   0  0  0  0  0  0  0  0  0  0  0  0
    3.1050   58.0152  126.3549 C   0  0  0  0  0  0  0  0  0  0  0  0
    2.0375   58.8009  126.8103 C   0  0  0  0  0  0  0  0  0  0  0  0
    1.1473   59.3466  125.9145 C   0  0  0  0  0  0  0  0  0  0  0  0
    1.2989   59.1233  124.5644 C   0  0  0  0  0  0  0  0  0  0  0  0
    2.3633   58.3426  124.1257 C   0  0  0  0  0  0  0  0  0  0  0  0
    3.2468   57.8015  125.0165 C   0  0  0  0  0  0  0  0  0  0  0  0
    4.3728   56.9959  124.8451 C   0  0  0  0  0  0  0  0  0  0  0  0
    4.8012   56.5903  123.6069 O   0  0  0  0  0  0  0  0  0  0  0  0
    4.2324   57.3630  128.0200 H   0  0  0  0  0  0  0  0  0  0  0  0
    5.5826   56.0220  123.3852 H   0  0  0  0  0  0  0  0  0  0  0  0
    8.4825   54.2222  125.7789 C   0  0  0  0  0  0  0  0  0  0  0  0
    8.5236   54.7649  124.4430 C   0  0  0  0  0  0  0  0  0  0  0  0
    9.2388   55.8954  124.1484 C   0  0  0  0  0  0  0  0  0  0  0  0
    9.3107   56.4450  122.8920 C   0  0  0  0  0  0  0  0  0  0  0  0
    8.6373   55.8549  121.8384 C   0  0  0  0  0  0  0  0  0  0  0  0
    7.9165   54.7264  122.1072 C   0  0  0  0  0  0  0  0  0  0  0  0
    7.8473   54.1784  123.3670 C   0  0  0  0  0  0  0  0  0  0  0  0
    5.7816   50.6902  129.7519 C   0  0  0  0  0  0  0  0  0  0  0  0
    3.5280   50.0798  129.1631 C   0  0  0  0  0  0  0  0  0  0  0  0
    5.0313   49.6724  129.0171 C   0  0  0  0  0  0  0  0  0  0  0  0
    5.0709   48.2634  129.4829 C   0  0  0  0  0  0  0  0  0  0  0  0
 71 72  1  0  0  0
 72 73  1  0  0  0
 72 70  1  0  0  0
 70 41  1  0  0  0
 41 42  1  0  0  0
 42 43  1  0  0  0
 43 44  2  0  0  0
 43 46  1  0  0  0
 46 63  1  0  0  0
 63 64  1  0  0  0
 64 65  2  0  0  0
 65 66  1  0  0  0
 66 67  2  0  0  0
 67 68  1  0  0  0
 68 69  2  0  0  0
 46 47  1  0  0  0
 47 48  1  0  0  0
 48 49  2  0  0  0
 48 51  1  0  0  0
 51 52  1  0  0  0
 52 53  1  0  0  0
 53 54  2  0  0  0
 54 55  1  0  0  0
 55 56  2  0  0  0
 56 57  1  0  0  0
 57 58  2  0  0  0
 58 59  1  0  0  0
 59 60  1  0  0  0
 41  1  1  0  0  0
  1  2  2  0  0  0
  1  3  1  0  0  0
  3  5  1  0  0  0
  5 38  1  0  0  0
 38 39  1  0  0  0
 38 40  1  0  0  0
  5  6  1  0  0  0
  6  7  2  0  0  0
  6  8  1  0  0  0
  8 10  1  0  0  0
 10 35  1  0  0  0
 35 36  1  0  0  0
 35 37  1  0  0  0
 10 11  1  0  0  0
 11 12  2  0  0  0
 11 13  1  0  0  0
 13 15  1  0  0  0
 15 32  1  0  0  0
 32 33  1  0  0  0
 32 34  1  0  0  0
 15 16  1  0  0  0
 16 17  2  0  0  0
 16 18  1  0  0  0
 18 20  1  0  0  0
 20 25  1  0  0  0
 25 26  1  0  0  0
 26 27  2  0  0  0
 27 28  1  0  0  0
 28 29  2  0  0  0
 29 30  1  0  0  0
 30 31  2  0  0  0
 20 21  1  0  0  0
 21 22  1  0  0  0
 21 23  2  0  0  0
 69 64  1  0  0  0
 59 51  2  0  0  0
 31 26  1  0  0  0
 58 53  1  0  0  0
 42 45  1  0  0  0
 47 50  1  0  0  0
 52 61  1  0  0  0
 60 62  1  0  0  0
  3  4  1  0  0  0
  8  9  1  0  0  0
 13 14  1  0  0  0
 18 19  1  0  0  0
 22 24  1  0  0  0
M  END
> <minimizedAffinity>
3.05398

> <CNNscore>
0.4359425604

> <CNNaffinity>
8.2133655548

> <CNN_VS>
3.5805556774

> <CNNaffinity_variance>
0.1733250171

$$$$
[H]OC(=O)[C@@]([H])(N([H])C(=O)[C@@]([H])(N([H])C(=O)[C@@]([H])(N([H])C(=O)[C@@]([H])(N([H])C(=O)[C@@]([H])(N([H])C(=O)[C@@]([H])(N([H])C(=O)c1c(O[H])c2c([H])c([H])c([H])c([H])c2n1[H])C([H])([H])c1c([H])c([H])c([H])c([H])c1[H])C([H])([H])C([H])(C([H])([H])[H])C([H])([H])[H])C([H])(C([H])([H])[H])C([H])([H])[H])C([H])(C([H])([H])[H])C([H])([H])[H])C([H])(C([H])([H])[H])C([H])([H])[H])C([H])([H])c1c([H])c([H])c([H])c([H])c1[H]


 73 76  0  0  0  0  0  0  0  0999 V2000
    9.7444   47.7826  130.2995 C   0  0  0  0  0  0  0  0  0  0  0  0
    9.5988   47.4235  131.4782 O   0  0  0  0  0  0  0  0  0  0  0  0
    9.7778   46.9480  129.1668 N   0  0  0  0  0  0  0  0  0  0  0  0
    9.8757   47.3484  128.2169 H   0  0  0  0  0  0  0  0  0  0  0  0
    9.6724   45.4745  129.2316 C   0  0  0  0  0  0  0  0  0  0  0  0
   10.8784   44.9514  129.8509 C   0  0  0  0  0  0  0  0  0  0  0  0
   11.5119   45.7347  130.6408 O   0  0  0  0  0  0  0  0  0  0  0  0
   11.4389   43.6558  129.6722 N   0  0  0  0  0  0  0  0  0  0  0  0
   10.9333   42.9811  129.0737 H   0  0  0  0  0  0  0  0  0  0  0  0
   12.7094   43.3374  130.3587 C   0  0  0  0  0  0  0  0  0  0  0  0
   12.5531   43.5693  131.8184 C   0  0  0  0  0  0  0  0  0  0  0  0
   12.1455   42.5641  132.4820 O   0  0  0  0  0  0  0  0  0  0  0  0
   12.8400   44.8096  132.4313 N   0  0  0  0  0  0  0  0  0  0  0  0
   13.1746   45.5815  131.8015 H   0  0  0  0  0  0  0  0  0  0  0  0
   12.6974   45.0438  133.8327 C   0  0  0  0  0  0  0  0  0  0  0  0
   11.2929   45.1250  134.2736 C   0  0  0  0  0  0  0  0  0  0  0  0
   10.8714   44.3690  135.1925 O   0  0  0  0  0  0  0  0  0  0  0  0
   10.3492   46.0238  133.7133 N   0  0  0  0  0  0  0  0  0  0  0  0
   10.6579   46.6621  132.9641 H   0  0  0  0  0  0  0  0  0  0  0  0
    8.9715   46.0877  134.1482 C   0  0  0  0  0  0  0  0  0  0  0  0
    8.8488   46.8790  135.4078 C   0  0  0  0  0  0  0  0  0  0  0  0
    9.6551   46.6533  136.5121 O   0  0  0  0  0  0  0  0  0  0  0  0
    7.9914   47.8039  135.5266 O   0  0  0  0  0  0  0  0  0  0  0  0
    9.3015   46.3416  137.4068 H   0  0  0  0  0  0  0  0  0  0  0  0
    8.3110   44.7536  134.2107 C   0  0  0  0  0  0  0  0  0  0  0  0
    8.3040   44.0316  132.9320 C   0  0  0  0  0  0  0  0  0  0  0  0
    8.8214   42.7678  132.8203 C   0  0  0  0  0  0  0  0  0  0  0  0
    8.7921   42.1268  131.5893 C   0  0  0  0  0  0  0  0  0  0  0  0
    8.2517   42.7402  130.4809 C   0  0  0  0  0  0  0  0  0  0  0  0
    7.7392   44.0101  130.6242 C   0  0  0  0  0  0  0  0  0  0  0  0
    7.7674   44.6444  131.8392 C   0  0  0  0  0  0  0  0  0  0  0  0
   13.4731   46.2794  134.2817 C   0  0  0  0  0  0  0  0  0  0  0  0
   12.6814   47.2355  135.0957 C   0  0  0  0  0  0  0  0  0  0  0  0
   14.2574   46.8781  133.1505 C   0  0  0  0  0  0  0  0  0  0  0  0
   13.7767   44.2091  129.7557 C   0  0  0  0  0  0  0  0  0  0  0  0
   15.0455   43.4607  129.5417 C   0  0  0  0  0  0  0  0  0  0  0  0
   13.2897   44.9450  128.5409 C   0  0  0  0  0  0  0  0  0  0  0  0
    9.5778   44.9859  127.7568 C   0  0  0  0  0  0  0  0  0  0  0  0
   10.5352   45.7298  126.8884 C   0  0  0  0  0  0  0  0  0  0  0  0
    9.8546   43.5113  127.7616 C   0  0  0  0  0  0  0  0  0  0  0  0
    9.9062   49.2680  129.9946 C   0  0  0  0  0  0  0  0  0  0  0  0
    8.7924   49.7300  129.2526 N   0  0  0  0  0  0  0  0  0  0  0  0
    8.0257   50.8708  129.5657 C   0  0  0  0  0  0  0  0  0  0  0  0
    8.3956   51.5654  130.5766 O   0  0  0  0  0  0  0  0  0  0  0  0
    8.4680   49.1773  128.3690 H   0  0  0  0  0  0  0  0  0  0  0  0
    6.8467   51.3414  128.8678 C   0  0  0  0  0  0  0  0  0  0  0  0
    7.1816   51.9891  127.5871 N   0  0  0  0  0  0  0  0  0  0  0  0
    7.1878   53.3846  127.4488 C   0  0  0  0  0  0  0  0  0  0  0  0
    6.9034   54.1380  128.4089 O   0  0  0  0  0  0  0  0  0  0  0  0
    7.4177   51.3949  126.7668 H   0  0  0  0  0  0  0  0  0  0  0  0
    7.5334   53.9968  126.1677 C   0  0  0  0  0  0  0  0  0  0  0  0
    7.2257   53.5176  124.9440 N   0  0  0  0  0  0  0  0  0  0  0  0
    7.7004   54.3282  123.9918 C   0  0  0  0  0  0  0  0  0  0  0  0
    7.6544   54.2825  122.5918 C   0  0  0  0  0  0  0  0  0  0  0  0
    8.2464   55.2758  121.8464 C   0  0  0  0  0  0  0  0  0  0  0  0
    8.8891   56.3207  122.4713 C   0  0  0  0  0  0  0  0  0  0  0  0
    8.9265   56.3545  123.8614 C   0  0  0  0  0  0  0  0  0  0  0  0
    8.3379   55.3675  124.6005 C   0  0  0  0  0  0  0  0  0  0  0  0
    8.2359   55.1640  125.9769 C   0  0  0  0  0  0  0  0  0  0  0  0
    8.7759   56.0358  126.8877 O   0  0  0  0  0  0  0  0  0  0  0  0
    6.6927   52.6378  124.7640 H   0  0  0  0  0  0  0  0  0  0  0  0
    8.7562   55.9775  127.8771 H   0  0  0  0  0  0  0  0  0  0  0  0
    5.5716   50.6394  128.8343 C   0  0  0  0  0  0  0  0  0  0  0  0
    5.4485   49.2192  129.0547 C   0  0  0  0  0  0  0  0  0  0  0  0
    6.4611   48.3525  128.7385 C   0  0  0  0  0  0  0  0  0  0  0  0
    6.3907   46.9952  128.9348 C   0  0  0  0  0  0  0  0  0  0  0  0
    5.2511   46.4324  129.4790 C   0  0  0  0  0  0  0  0  0  0  0  0
    4.2270   47.2763  129.8024 C   0  0  0  0  0  0  0  0  0  0  0  0
    4.3014   48.6355  129.6049 C   0  0  0  0  0  0  0  0  0  0  0  0
   10.2243   49.9078  131.2726 C   0  0  0  0  0  0  0  0  0  0  0  0
   10.1953   49.4862  133.6432 C   0  0  0  0  0  0  0  0  0  0  0  0
    9.3196   49.9199  132.4216 C   0  0  0  0  0  0  0  0  0  0  0  0
    8.1693   48.9819  132.4502 C   0  0  0  0  0  0  0  0  0  0  0  0
 71 72  1  0  0  0
 72 73  1  0  0  0
 72 70  1  0  0  0
 70 41  1  0  0  0
 41 42  1  0  0  0
 42 43  1  0  0  0
 43 44  2  0  0  0
 43 46  1  0  0  0
 46 63  1  0  0  0
 63 64  1  0  0  0
 64 65  2  0  0  0
 65 66  1  0  0  0
 66 67  2  0  0  0
 67 68  1  0  0  0
 68 69  2  0  0  0
 46 47  1  0  0  0
 47 48  1  0  0  0
 48 49  2  0  0  0
 48 51  1  0  0  0
 51 52  1  0  0  0
 52 53  1  0  0  0
 53 54  2  0  0  0
 54 55  1  0  0  0
 55 56  2  0  0  0
 56 57  1  0  0  0
 57 58  2  0  0  0
 58 59  1  0  0  0
 59 60  1  0  0  0
 41  1  1  0  0  0
  1  2  2  0  0  0
  1  3  1  0  0  0
  3  5  1  0  0  0
  5 38  1  0  0  0
 38 39  1  0  0  0
 38 40  1  0  0  0
  5  6  1  0  0  0
  6  7  2  0  0  0
  6  8  1  0  0  0
  8 10  1  0  0  0
 10 35  1  0  0  0
 35 36  1  0  0  0
 35 37  1  0  0  0
 10 11  1  0  0  0
 11 12  2  0  0  0
 11 13  1  0  0  0
 13 15  1  0  0  0
 15 32  1  0  0  0
 32 33  1  0  0  0
 32 34  1  0  0  0
 15 16  1  0  0  0
 16 17  2  0  0  0
 16 18  1  0  0  0
 18 20  1  0  0  0
 20 25  1  0  0  0
 25 26  1  0  0  0
 26 27  2  0  0  0
 27 28  1  0  0  0
 28 29  2  0  0  0
 29 30  1  0  0  0
 30 31  2  0  0  0
 20 21  1  0  0  0
 21 22  1  0  0  0
 21 23  2  0  0  0
 69 64  1  0  0  0
 59 51  2  0  0  0
 31 26  1  0  0  0
 58 53  1  0  0  0
 42 45  1  0  0  0
 47 50  1  0  0  0
 52 61  1  0  0  0
 60 62  1  0  0  0
  3  4  1  0  0  0
  8  9  1  0  0  0
 13 14  1  0  0  0
 18 19  1  0  0  0
 22 24  1  0  0  0
M  END
> <minimizedAffinity>
9.35750

> <CNNscore>
0.4212490618

> <CNNaffinity>
8.5498256683

> <CNN_VS>
3.6016061306

> <CNNaffinity_variance>
0.7272621989

$$$$
[H]OC(=O)[C@@]([H])(N([H])C(=O)[C@@]([H])(N([H])C(=O)[C@@]([H])(N([H])C(=O)[C@@]([H])(N([H])C(=O)[C@@]([H])(N([H])C(=O)[C@@]([H])(N([H])C(=O)c1c(O[H])c2c([H])c([H])c([H])c([H])c2n1[H])C([H])([H])c1c([H])c([H])c([H])c([H])c1[H])C([H])([H])C([H])(C([H])([H])[H])C([H])([H])[H])C([H])(C([H])([H])[H])C([H])([H])[H])C([H])(C([H])([H])[H])C([H])([H])[H])C([H])(C([H])([H])[H])C([H])([H])[H])C([H])([H])c1c([H])c([H])c([H])c([H])c1[H]


 73 76  0  0  0  0  0  0  0  0999 V2000
    8.6697   50.1474  129.8393 C   0  0  0  0  0  0  0  0  0  0  0  0
    9.4169   49.8149  128.9062 O   0  0  0  0  0  0  0  0  0  0  0  0
    8.9449   50.0341  131.2148 N   0  0  0  0  0  0  0  0  0  0  0  0
    8.2642   50.3681  131.9201 H   0  0  0  0  0  0  0  0  0  0  0  0
   10.1926   49.4534  131.7556 C   0  0  0  0  0  0  0  0  0  0  0  0
    9.9205   48.0925  132.1865 C   0  0  0  0  0  0  0  0  0  0  0  0
   10.5629   47.1568  131.5945 O   0  0  0  0  0  0  0  0  0  0  0  0
    9.0093   47.6822  133.1994 N   0  0  0  0  0  0  0  0  0  0  0  0
    8.5025   48.4121  133.7280 H   0  0  0  0  0  0  0  0  0  0  0  0
    8.8412   46.2346  133.4509 C   0  0  0  0  0  0  0  0  0  0  0  0
    8.3760   45.5684  132.2064 C   0  0  0  0  0  0  0  0  0  0  0  0
    8.5987   44.3178  132.1504 O   0  0  0  0  0  0  0  0  0  0  0  0
    7.7281   46.2650  131.1617 N   0  0  0  0  0  0  0  0  0  0  0  0
    7.5853   47.2970  131.2996 H   0  0  0  0  0  0  0  0  0  0  0  0
    7.2733   45.6359  129.9632 C   0  0  0  0  0  0  0  0  0  0  0  0
    8.3481   44.9659  129.2085 C   0  0  0  0  0  0  0  0  0  0  0  0
    8.0720   44.2750  128.1887 O   0  0  0  0  0  0  0  0  0  0  0  0
    9.7189   45.0447  129.5652 N   0  0  0  0  0  0  0  0  0  0  0  0
    9.9845   45.6053  130.3893 H   0  0  0  0  0  0  0  0  0  0  0  0
   10.7633   44.3751  128.8220 C   0  0  0  0  0  0  0  0  0  0  0  0
   10.3544   42.9839  128.4681 C   0  0  0  0  0  0  0  0  0  0  0  0
    9.6315   42.1764  129.3318 O   0  0  0  0  0  0  0  0  0  0  0  0
   10.6533   42.4715  127.3489 O   0  0  0  0  0  0  0  0  0  0  0  0
    9.9868   41.3106  129.7149 H   0  0  0  0  0  0  0  0  0  0  0  0
   12.0991   44.4601  129.4762 C   0  0  0  0  0  0  0  0  0  0  0  0
   12.0649   44.2547  130.9298 C   0  0  0  0  0  0  0  0  0  0  0  0
   12.4666   45.2330  131.8010 C   0  0  0  0  0  0  0  0  0  0  0  0
   12.4162   44.9905  133.1669 C   0  0  0  0  0  0  0  0  0  0  0  0
   11.9691   43.7843  133.6588 C   0  0  0  0  0  0  0  0  0  0  0  0
   11.5718   42.8209  132.7590 C   0  0  0  0  0  0  0  0  0  0  0  0
   11.6210   43.0589  131.4099 C   0  0  0  0  0  0  0  0  0  0  0  0
    6.5142   46.6098  129.0658 C   0  0  0  0  0  0  0  0  0  0  0  0
    7.3453   47.7118  128.5194 C   0  0  0  0  0  0  0  0  0  0  0  0
    5.2077   47.0203  129.6802 C   0  0  0  0  0  0  0  0  0  0  0  0
    7.8560   46.0857  134.5777 C   0  0  0  0  0  0  0  0  0  0  0  0
    7.2857   44.7120  134.6348 C   0  0  0  0  0  0  0  0  0  0  0  0
    8.4116   46.5708  135.8856 C   0  0  0  0  0  0  0  0  0  0  0  0
   10.5786   50.3316  132.9812 C   0  0  0  0  0  0  0  0  0  0  0  0
    9.4876   51.2939  133.3097 C   0  0  0  0  0  0  0  0  0  0  0  0
   10.8647   49.3982  134.1206 C   0  0  0  0  0  0  0  0  0  0  0  0
    7.3049   50.7456  129.5153 C   0  0  0  0  0  0  0  0  0  0  0  0
    7.3228   51.3062  128.2153 N   0  0  0  0  0  0  0  0  0  0  0  0
    7.2296   52.6824  127.9238 C   0  0  0  0  0  0  0  0  0  0  0  0
    7.1678   53.4884  128.9176 O   0  0  0  0  0  0  0  0  0  0  0  0
    7.4032   50.6494  127.3473 H   0  0  0  0  0  0  0  0  0  0  0  0
    7.1848   53.2891  126.6091 C   0  0  0  0  0  0  0  0  0  0  0  0
    6.0639   54.2361  126.4730 N   0  0  0  0  0  0  0  0  0  0  0  0
    6.2573   55.6220  126.5654 C   0  0  0  0  0  0  0  0  0  0  0  0
    7.3921   56.1113  126.7728 O   0  0  0  0  0  0  0  0  0  0  0  0
    5.1067   53.8655  126.3053 H   0  0  0  0  0  0  0  0  0  0  0  0
    5.1265   56.5356  126.4166 C   0  0  0  0  0  0  0  0  0  0  0  0
    4.3827   57.0561  127.4153 N   0  0  0  0  0  0  0  0  0  0  0  0
    3.4268   57.8502  126.9209 C   0  0  0  0  0  0  0  0  0  0  0  0
    2.4138   58.6096  127.5221 C   0  0  0  0  0  0  0  0  0  0  0  0
    1.5485   59.3473  126.7476 C   0  0  0  0  0  0  0  0  0  0  0  0
    1.6715   59.3432  125.3764 C   0  0  0  0  0  0  0  0  0  0  0  0
    2.6819   58.5861  124.7925 C   0  0  0  0  0  0  0  0  0  0  0  0
    3.5407   57.8542  125.5629 C   0  0  0  0  0  0  0  0  0  0  0  0
    4.6141   57.0246  125.2373 C   0  0  0  0  0  0  0  0  0  0  0  0
    5.0035   56.8065  123.9404 O   0  0  0  0  0  0  0  0  0  0  0  0
    4.5308   56.8661  128.4314 H   0  0  0  0  0  0  0  0  0  0  0  0
    5.7466   56.2388  123.6116 H   0  0  0  0  0  0  0  0  0  0  0  0
    8.3574   53.6807  125.8400 C   0  0  0  0  0  0  0  0  0  0  0  0
    8.2806   54.2009  124.4968 C   0  0  0  0  0  0  0  0  0  0  0  0
    7.4017   53.6912  123.5780 C   0  0  0  0  0  0  0  0  0  0  0  0
    7.2902   54.1571  122.2911 C   0  0  0  0  0  0  0  0  0  0  0  0
    8.0922   55.1972  121.8592 C   0  0  0  0  0  0  0  0  0  0  0  0
    8.9772   55.7223  122.7573 C   0  0  0  0  0  0  0  0  0  0  0  0
    9.0857   55.2533  124.0458 C   0  0  0  0  0  0  0  0  0  0  0  0
    6.3253   49.7029  129.8268 C   0  0  0  0  0  0  0  0  0  0  0  0
    4.1645   50.2759  128.9321 C   0  0  0  0  0  0  0  0  0  0  0  0
    4.9530   49.9790  130.2502 C   0  0  0  0  0  0  0  0  0  0  0  0
    4.6811   51.1598  131.1078 C   0  0  0  0  0  0  0  0  0  0  0  0
 71 72  1  0  0  0
 72 73  1  0  0  0
 72 70  1  0  0  0
 70 41  1  0  0  0
 41 42  1  0  0  0
 42 43  1  0  0  0
 43 44  2  0  0  0
 43 46  1  0  0  0
 46 63  1  0  0  0
 63 64  1  0  0  0
 64 65  2  0  0  0
 65 66  1  0  0  0
 66 67  2  0  0  0
 67 68  1  0  0  0
 68 69  2  0  0  0
 46 47  1  0  0  0
 47 48  1  0  0  0
 48 49  2  0  0  0
 48 51  1  0  0  0
 51 52  1  0  0  0
 52 53  1  0  0  0
 53 54  2  0  0  0
 54 55  1  0  0  0
 55 56  2  0  0  0
 56 57  1  0  0  0
 57 58  2  0  0  0
 58 59  1  0  0  0
 59 60  1  0  0  0
 41  1  1  0  0  0
  1  2  2  0  0  0
  1  3  1  0  0  0
  3  5  1  0  0  0
  5 38  1  0  0  0
 38 39  1  0  0  0
 38 40  1  0  0  0
  5  6  1  0  0  0
  6  7  2  0  0  0
  6  8  1  0  0  0
  8 10  1  0  0  0
 10 35  1  0  0  0
 35 36  1  0  0  0
 35 37  1  0  0  0
 10 11  1  0  0  0
 11 12  2  0  0  0
 11 13  1  0  0  0
 13 15  1  0  0  0
 15 32  1  0  0  0
 32 33  1  0  0  0
 32 34  1  0  0  0
 15 16  1  0  0  0
 16 17  2  0  0  0
 16 18  1  0  0  0
 18 20  1  0  0  0
 20 25  1  0  0  0
 25 26  1  0  0  0
 26 27  2  0  0  0
 27 28  1  0  0  0
 28 29  2  0  0  0
 29 30  1  0  0  0
 30 31  2  0  0  0
 20 21  1  0  0  0
 21 22  1  0  0  0
 21 23  2  0  0  0
 69 64  1  0  0  0
 59 51  2  0  0  0
 31 26  1  0  0  0
 58 53  1  0  0  0
 42 45  1  0  0  0
 47 50  1  0  0  0
 52 61  1  0  0  0
 60 62  1  0  0  0
  3  4  1  0  0  0
  8  9  1  0  0  0
 13 14  1  0  0  0
 18 19  1  0  0  0
 22 24  1  0  0  0
M  END
> <minimizedAffinity>
5.00267

> <CNNscore>
0.4131605327

> <CNNaffinity>
8.3500089645

> <CNN_VS>
3.4498941898

> <CNNaffinity_variance>
0.3700204790

$$$$
[H]OC(=O)[C@@]([H])(N([H])C(=O)[C@@]([H])(N([H])C(=O)[C@@]([H])(N([H])C(=O)[C@@]([H])(N([H])C(=O)[C@@]([H])(N([H])C(=O)[C@@]([H])(N([H])C(=O)c1c(O[H])c2c([H])c([H])c([H])c([H])c2n1[H])C([H])([H])c1c([H])c([H])c([H])c([H])c1[H])C([H])([H])C([H])(C([H])([H])[H])C([H])([H])[H])C([H])(C([H])([H])[H])C([H])([H])[H])C([H])(C([H])([H])[H])C([H])([H])[H])C([H])(C([H])([H])[H])C([H])([H])[H])C([H])([H])c1c([H])c([H])c([H])c([H])c1[H]


 73 76  0  0  0  0  0  0  0  0999 V2000
    8.0058   50.5613  129.0540 C   0  0  0  0  0  0  0  0  0  0  0  0
    7.9341   49.7730  128.0985 O   0  0  0  0  0  0  0  0  0  0  0  0
    8.7961   50.4095  130.2086 N   0  0  0  0  0  0  0  0  0  0  0  0
    8.8089   51.1412  130.9413 H   0  0  0  0  0  0  0  0  0  0  0  0
    9.6548   49.2333  130.4648 C   0  0  0  0  0  0  0  0  0  0  0  0
    8.8152   48.0479  130.5058 C   0  0  0  0  0  0  0  0  0  0  0  0
    9.2702   46.9945  129.9383 O   0  0  0  0  0  0  0  0  0  0  0  0
    7.5319   47.9292  131.1088 N   0  0  0  0  0  0  0  0  0  0  0  0
    7.1492   48.7472  131.6123 H   0  0  0  0  0  0  0  0  0  0  0  0
    6.8161   46.6403  130.9932 C   0  0  0  0  0  0  0  0  0  0  0  0
    7.6614   45.5545  131.5547 C   0  0  0  0  0  0  0  0  0  0  0  0
    8.0118   45.7175  132.7661 O   0  0  0  0  0  0  0  0  0  0  0  0
    8.0458   44.4193  130.8064 N   0  0  0  0  0  0  0  0  0  0  0  0
    7.7052   44.3706  129.8134 H   0  0  0  0  0  0  0  0  0  0  0  0
    8.8542   43.3678  131.3354 C   0  0  0  0  0  0  0  0  0  0  0  0
   10.2919   43.6932  131.3676 C   0  0  0  0  0  0  0  0  0  0  0  0
   11.1454   42.7803  131.5454 O   0  0  0  0  0  0  0  0  0  0  0  0
   10.7985   45.0089  131.2105 N   0  0  0  0  0  0  0  0  0  0  0  0
   10.1319   45.7809  131.0569 H   0  0  0  0  0  0  0  0  0  0  0  0
   12.2109   45.3167  131.2532 C   0  0  0  0  0  0  0  0  0  0  0  0
   12.9283   44.6760  130.1118 C   0  0  0  0  0  0  0  0  0  0  0  0
   12.3884   44.6037  128.8375 O   0  0  0  0  0  0  0  0  0  0  0  0
   14.0771   44.1625  130.2576 O   0  0  0  0  0  0  0  0  0  0  0  0
   12.1632   43.7328  128.3755 H   0  0  0  0  0  0  0  0  0  0  0  0
   12.8327   45.0476  132.5801 C   0  0  0  0  0  0  0  0  0  0  0  0
   11.8855   45.0888  133.7014 C   0  0  0  0  0  0  0  0  0  0  0  0
   11.1727   46.2214  133.9957 C   0  0  0  0  0  0  0  0  0  0  0  0
   10.2896   46.2107  135.0667 C   0  0  0  0  0  0  0  0  0  0  0  0
   10.1188   45.0813  135.8361 C   0  0  0  0  0  0  0  0  0  0  0  0
   10.8485   43.9585  135.5159 C   0  0  0  0  0  0  0  0  0  0  0  0
   11.7209   43.9675  134.4586 C   0  0  0  0  0  0  0  0  0  0  0  0
    8.6187   42.0496  130.6028 C   0  0  0  0  0  0  0  0  0  0  0  0
    8.9602   42.0836  129.1586 C   0  0  0  0  0  0  0  0  0  0  0  0
    7.2800   41.4621  130.9435 C   0  0  0  0  0  0  0  0  0  0  0  0
    6.5089   46.4260  129.5364 C   0  0  0  0  0  0  0  0  0  0  0  0
    5.1550   46.9298  129.1775 C   0  0  0  0  0  0  0  0  0  0  0  0
    7.6051   46.9330  128.6443 C   0  0  0  0  0  0  0  0  0  0  0  0
   10.3049   49.4722  131.8586 C   0  0  0  0  0  0  0  0  0  0  0  0
    9.2855   49.3790  132.9432 C   0  0  0  0  0  0  0  0  0  0  0  0
   11.3908   48.4496  132.0204 C   0  0  0  0  0  0  0  0  0  0  0  0
    7.1742   51.8391  129.0212 C   0  0  0  0  0  0  0  0  0  0  0  0
    7.1777   52.3809  127.7132 N   0  0  0  0  0  0  0  0  0  0  0  0
    7.5221   53.7082  127.3857 C   0  0  0  0  0  0  0  0  0  0  0  0
    7.9027   54.4678  128.3446 O   0  0  0  0  0  0  0  0  0  0  0  0
    6.8861   51.7525  126.8698 H   0  0  0  0  0  0  0  0  0  0  0  0
    7.4815   54.3154  126.0711 C   0  0  0  0  0  0  0  0  0  0  0  0
    6.2240   55.0469  125.8365 N   0  0  0  0  0  0  0  0  0  0  0  0
    6.0451   56.3637  126.2847 C   0  0  0  0  0  0  0  0  0  0  0  0
    6.9472   56.9702  126.9081 O   0  0  0  0  0  0  0  0  0  0  0  0
    5.4511   54.5730  125.3269 H   0  0  0  0  0  0  0  0  0  0  0  0
    4.7894   57.0655  126.0281 C   0  0  0  0  0  0  0  0  0  0  0  0
    3.9905   57.6386  126.9528 N   0  0  0  0  0  0  0  0  0  0  0  0
    2.9206   58.1894  126.3691 C   0  0  0  0  0  0  0  0  0  0  0  0
    1.8146   58.8877  126.8726 C   0  0  0  0  0  0  0  0  0  0  0  0
    0.8387   59.3481  126.0191 C   0  0  0  0  0  0  0  0  0  0  0  0
    0.9419   59.1245  124.6645 C   0  0  0  0  0  0  0  0  0  0  0  0
    2.0451   58.4311  124.1779 C   0  0  0  0  0  0  0  0  0  0  0  0
    3.0137   57.9747  125.0266 C   0  0  0  0  0  0  0  0  0  0  0  0
    4.1936   57.2643  124.8041 C   0  0  0  0  0  0  0  0  0  0  0  0
    4.5930   56.8834  123.5485 O   0  0  0  0  0  0  0  0  0  0  0  0
    4.1793   57.6506  127.9798 H   0  0  0  0  0  0  0  0  0  0  0  0
    5.4074   56.3802  123.2915 H   0  0  0  0  0  0  0  0  0  0  0  0
    8.6257   54.9223  125.4061 C   0  0  0  0  0  0  0  0  0  0  0  0
    8.6461   55.2290  123.9968 C   0  0  0  0  0  0  0  0  0  0  0  0
    7.5950   54.9127  123.1773 C   0  0  0  0  0  0  0  0  0  0  0  0
    7.5680   55.1891  121.8325 C   0  0  0  0  0  0  0  0  0  0  0  0
    8.6425   55.8204  121.2336 C   0  0  0  0  0  0  0  0  0  0  0  0
    9.7032   56.1457  122.0301 C   0  0  0  0  0  0  0  0  0  0  0  0
    9.7264   55.8677  123.3770 C   0  0  0  0  0  0  0  0  0  0  0  0
    5.8946   51.5014  129.6477 C   0  0  0  0  0  0  0  0  0  0  0  0
    4.1783   49.8277  129.4212 C   0  0  0  0  0  0  0  0  0  0  0  0
    5.5452   50.1575  130.1067 C   0  0  0  0  0  0  0  0  0  0  0  0
    5.2904   49.9266  131.5509 C   0  0  0  0  0  0  0  0  0  0  0  0
 71 72  1  0  0  0
 72 73  1  0  0  0
 72 70  1  0  0  0
 70 41  1  0  0  0
 41 42  1  0  0  0
 42 43  1  0  0  0
 43 44  2  0  0  0
 43 46  1  0  0  0
 46 63  1  0  0  0
 63 64  1  0  0  0
 64 65  2  0  0  0
 65 66  1  0  0  0
 66 67  2  0  0  0
 67 68  1  0  0  0
 68 69  2  0  0  0
 46 47  1  0  0  0
 47 48  1  0  0  0
 48 49  2  0  0  0
 48 51  1  0  0  0
 51 52  1  0  0  0
 52 53  1  0  0  0
 53 54  2  0  0  0
 54 55  1  0  0  0
 55 56  2  0  0  0
 56 57  1  0  0  0
 57 58  2  0  0  0
 58 59  1  0  0  0
 59 60  1  0  0  0
 41  1  1  0  0  0
  1  2  2  0  0  0
  1  3  1  0  0  0
  3  5  1  0  0  0
  5 38  1  0  0  0
 38 39  1  0  0  0
 38 40  1  0  0  0
  5  6  1  0  0  0
  6  7  2  0  0  0
  6  8  1  0  0  0
  8 10  1  0  0  0
 10 35  1  0  0  0
 35 36  1  0  0  0
 35 37  1  0  0  0
 10 11  1  0  0  0
 11 12  2  0  0  0
 11 13  1  0  0  0
 13 15  1  0  0  0
 15 32  1  0  0  0
 32 33  1  0  0  0
 32 34  1  0  0  0
 15 16  1  0  0  0
 16 17  2  0  0  0
 16 18  1  0  0  0
 18 20  1  0  0  0
 20 25  1  0  0  0
 25 26  1  0  0  0
 26 27  2  0  0  0
 27 28  1  0  0  0
 28 29  2  0  0  0
 29 30  1  0  0  0
 30 31  2  0  0  0
 20 21  1  0  0  0
 21 22  1  0  0  0
 21 23  2  0  0  0
 69 64  1  0  0  0
 59 51  2  0  0  0
 31 26  1  0  0  0
 58 53  1  0  0  0
 42 45  1  0  0  0
 47 50  1  0  0  0
 52 61  1  0  0  0
 60 62  1  0  0  0
  3  4  1  0  0  0
  8  9  1  0  0  0
 13 14  1  0  0  0
 18 19  1  0  0  0
 22 24  1  0  0  0
M  END
> <minimizedAffinity>
5.70346

> <CNNscore>
0.3646611571

> <CNNaffinity>
8.0942802429

> <CNN_VS>
2.9516696930

> <CNNaffinity_variance>
0.2225263864

$$$$
[H]OC(=O)[C@@]([H])(N([H])C(=O)[C@@]([H])(N([H])C(=O)[C@@]([H])(N([H])C(=O)[C@@]([H])(N([H])C(=O)[C@@]([H])(N([H])C(=O)[C@@]([H])(N([H])C(=O)c1c(O[H])c2c([H])c([H])c([H])c([H])c2n1[H])C([H])([H])c1c([H])c([H])c([H])c([H])c1[H])C([H])([H])C([H])(C([H])([H])[H])C([H])([H])[H])C([H])(C([H])([H])[H])C([H])([H])[H])C([H])(C([H])([H])[H])C([H])([H])[H])C([H])(C([H])([H])[H])C([H])([H])[H])C([H])([H])c1c([H])c([H])c([H])c([H])c1[H]


 73 76  0  0  0  0  0  0  0  0999 V2000
    8.1453   50.4587  129.3870 C   0  0  0  0  0  0  0  0  0  0  0  0
    8.1213   49.6727  128.4272 O   0  0  0  0  0  0  0  0  0  0  0  0
    8.7910   50.2556  130.6209 N   0  0  0  0  0  0  0  0  0  0  0  0
    8.7769   50.9882  131.3526 H   0  0  0  0  0  0  0  0  0  0  0  0
    9.5281   49.0212  130.9665 C   0  0  0  0  0  0  0  0  0  0  0  0
    8.6011   47.9028  130.9271 C   0  0  0  0  0  0  0  0  0  0  0  0
    8.9087   46.8694  131.6173 O   0  0  0  0  0  0  0  0  0  0  0  0
    7.3817   47.8278  130.1978 N   0  0  0  0  0  0  0  0  0  0  0  0
    7.0794   48.6584  129.6614 H   0  0  0  0  0  0  0  0  0  0  0  0
    6.6048   46.5707  130.2522 C   0  0  0  0  0  0  0  0  0  0  0  0
    7.4975   45.4250  129.9369 C   0  0  0  0  0  0  0  0  0  0  0  0
    7.3198   44.3911  130.6554 O   0  0  0  0  0  0  0  0  0  0  0  0
    8.4693   45.4714  128.9123 N   0  0  0  0  0  0  0  0  0  0  0  0
    8.5407   46.3684  128.3692 H   0  0  0  0  0  0  0  0  0  0  0  0
    9.3301   44.3765  128.5972 C   0  0  0  0  0  0  0  0  0  0  0  0
    9.3229   43.3126  129.6178 C   0  0  0  0  0  0  0  0  0  0  0  0
    8.7975   42.1932  129.3640 O   0  0  0  0  0  0  0  0  0  0  0  0
    9.8827   43.4681  130.9120 N   0  0  0  0  0  0  0  0  0  0  0  0
   10.3268   44.3669  131.1545 H   0  0  0  0  0  0  0  0  0  0  0  0
    9.8612   42.4197  131.9079 C   0  0  0  0  0  0  0  0  0  0  0  0
    8.5657   42.4183  132.6490 C   0  0  0  0  0  0  0  0  0  0  0  0
    8.4802   42.7042  134.0024 O   0  0  0  0  0  0  0  0  0  0  0  0
    7.4720   42.1521  132.0680 O   0  0  0  0  0  0  0  0  0  0  0  0
    8.1639   42.0381  134.6945 H   0  0  0  0  0  0  0  0  0  0  0  0
   11.0594   42.4236  132.7934 C   0  0  0  0  0  0  0  0  0  0  0  0
   11.6447   43.7547  132.9982 C   0  0  0  0  0  0  0  0  0  0  0  0
   12.4319   44.0315  134.0850 C   0  0  0  0  0  0  0  0  0  0  0  0
   12.9618   45.3058  134.2346 C   0  0  0  0  0  0  0  0  0  0  0  0
   12.7093   46.2940  133.3092 C   0  0  0  0  0  0  0  0  0  0  0  0
   11.9151   45.9859  132.2275 C   0  0  0  0  0  0  0  0  0  0  0  0
   11.3912   44.7279  132.0783 C   0  0  0  0  0  0  0  0  0  0  0  0
   10.7568   44.8410  128.3163 C   0  0  0  0  0  0  0  0  0  0  0  0
   10.9366   46.3142  128.3447 C   0  0  0  0  0  0  0  0  0  0  0  0
   11.3417   44.1347  127.1280 C   0  0  0  0  0  0  0  0  0  0  0  0
    5.4743   46.6981  129.2682 C   0  0  0  0  0  0  0  0  0  0  0  0
    4.1621   46.8593  129.9523 C   0  0  0  0  0  0  0  0  0  0  0  0
    5.7481   47.7380  128.2203 C   0  0  0  0  0  0  0  0  0  0  0  0
   10.0518   49.2263  132.4177 C   0  0  0  0  0  0  0  0  0  0  0  0
    9.9611   50.6603  132.8174 C   0  0  0  0  0  0  0  0  0  0  0  0
    9.2329   48.3422  133.3117 C   0  0  0  0  0  0  0  0  0  0  0  0
    7.4179   51.7936  129.2668 C   0  0  0  0  0  0  0  0  0  0  0  0
    7.3420   52.1782  127.9064 N   0  0  0  0  0  0  0  0  0  0  0  0
    7.5836   53.4776  127.4158 C   0  0  0  0  0  0  0  0  0  0  0  0
    7.9420   54.3668  128.2655 O   0  0  0  0  0  0  0  0  0  0  0  0
    7.0670   51.4381  127.1526 H   0  0  0  0  0  0  0  0  0  0  0  0
    7.4589   53.9233  126.0431 C   0  0  0  0  0  0  0  0  0  0  0  0
    6.2403   54.7237  125.8282 N   0  0  0  0  0  0  0  0  0  0  0  0
    6.2192   56.1068  126.0594 C   0  0  0  0  0  0  0  0  0  0  0  0
    7.2360   56.7176  126.4635 O   0  0  0  0  0  0  0  0  0  0  0  0
    5.3757   54.2493  125.4981 H   0  0  0  0  0  0  0  0  0  0  0  0
    4.9974   56.8742  125.8280 C   0  0  0  0  0  0  0  0  0  0  0  0
    4.4433   57.1523  124.6291 N   0  0  0  0  0  0  0  0  0  0  0  0
    3.3313   57.8790  124.7856 C   0  0  0  0  0  0  0  0  0  0  0  0
    2.4088   58.4163  123.8775 C   0  0  0  0  0  0  0  0  0  0  0  0
    1.3328   59.1434  124.3316 C   0  0  0  0  0  0  0  0  0  0  0  0
    1.1560   59.3489  125.6814 C   0  0  0  0  0  0  0  0  0  0  0  0
    2.0784   58.8093  126.5719 C   0  0  0  0  0  0  0  0  0  0  0  0
    3.1464   58.0871  126.1196 C   0  0  0  0  0  0  0  0  0  0  0  0
    4.1968   57.4541  126.7846 C   0  0  0  0  0  0  0  0  0  0  0  0
    4.3130   57.4693  128.1512 O   0  0  0  0  0  0  0  0  0  0  0  0
    4.8275   56.8447  123.7081 H   0  0  0  0  0  0  0  0  0  0  0  0
    5.0175   57.0528  128.7104 H   0  0  0  0  0  0  0  0  0  0  0  0
    8.5735   54.3481  125.2083 C   0  0  0  0  0  0  0  0  0  0  0  0
    8.4062   54.8471  123.8653 C   0  0  0  0  0  0  0  0  0  0  0  0
    7.5635   54.2392  122.9726 C   0  0  0  0  0  0  0  0  0  0  0  0
    7.3690   54.6808  121.6870 C   0  0  0  0  0  0  0  0  0  0  0  0
    8.0432   55.7978  121.2291 C   0  0  0  0  0  0  0  0  0  0  0  0
    8.8897   56.4214  122.1007 C   0  0  0  0  0  0  0  0  0  0  0  0
    9.0816   55.9764  123.3881 C   0  0  0  0  0  0  0  0  0  0  0  0
    6.1799   51.6467  130.0346 C   0  0  0  0  0  0  0  0  0  0  0  0
    4.4884   50.2171  129.0896 C   0  0  0  0  0  0  0  0  0  0  0  0
    5.5132   50.3651  130.2622 C   0  0  0  0  0  0  0  0  0  0  0  0
    4.6922   50.1806  131.4852 C   0  0  0  0  0  0  0  0  0  0  0  0
 71 72  1  0  0  0
 72 73  1  0  0  0
 72 70  1  0  0  0
 70 41  1  0  0  0
 41 42  1  0  0  0
 42 43  1  0  0  0
 43 44  2  0  0  0
 43 46  1  0  0  0
 46 63  1  0  0  0
 63 64  1  0  0  0
 64 65  2  0  0  0
 65 66  1  0  0  0
 66 67  2  0  0  0
 67 68  1  0  0  0
 68 69  2  0  0  0
 46 47  1  0  0  0
 47 48  1  0  0  0
 48 49  2  0  0  0
 48 51  1  0  0  0
 51 52  1  0  0  0
 52 53  1  0  0  0
 53 54  2  0  0  0
 54 55  1  0  0  0
 55 56  2  0  0  0
 56 57  1  0  0  0
 57 58  2  0  0  0
 58 59  1  0  0  0
 59 60  1  0  0  0
 41  1  1  0  0  0
  1  2  2  0  0  0
  1  3  1  0  0  0
  3  5  1  0  0  0
  5 38  1  0  0  0
 38 39  1  0  0  0
 38 40  1  0  0  0
  5  6  1  0  0  0
  6  7  2  0  0  0
  6  8  1  0  0  0
  8 10  1  0  0  0
 10 35  1  0  0  0
 35 36  1  0  0  0
 35 37  1  0  0  0
 10 11  1  0  0  0
 11 12  2  0  0  0
 11 13  1  0  0  0
 13 15  1  0  0  0
 15 32  1  0  0  0
 32 33  1  0  0  0
 32 34  1  0  0  0
 15 16  1  0  0  0
 16 17  2  0  0  0
 16 18  1  0  0  0
 18 20  1  0  0  0
 20 25  1  0  0  0
 25 26  1  0  0  0
 26 27  2  0  0  0
 27 28  1  0  0  0
 28 29  2  0  0  0
 29 30  1  0  0  0
 30 31  2  0  0  0
 20 21  1  0  0  0
 21 22  1  0  0  0
 21 23  2  0  0  0
 69 64  1  0  0  0
 59 51  2  0  0  0
 31 26  1  0  0  0
 58 53  1  0  0  0
 42 45  1  0  0  0
 47 50  1  0  0  0
 52 61  1  0  0  0
 60 62  1  0  0  0
  3  4  1  0  0  0
  8  9  1  0  0  0
 13 14  1  0  0  0
 18 19  1  0  0  0
 22 24  1  0  0  0
M  END
> <minimizedAffinity>
3.96534

> <CNNscore>
0.3603493869

> <CNNaffinity>
8.1671619415

> <CNN_VS>
2.9430317879

> <CNNaffinity_variance>
0.3203211725

$$$$
[H]OC(=O)[C@@]([H])(N([H])C(=O)[C@@]([H])(N([H])C(=O)[C@@]([H])(N([H])C(=O)[C@@]([H])(N([H])C(=O)[C@@]([H])(N([H])C(=O)[C@@]([H])(N([H])C(=O)c1c(O[H])c2c([H])c([H])c([H])c([H])c2n1[H])C([H])([H])c1c([H])c([H])c([H])c([H])c1[H])C([H])([H])C([H])(C([H])([H])[H])C([H])([H])[H])C([H])(C([H])([H])[H])C([H])([H])[H])C([H])(C([H])([H])[H])C([H])([H])[H])C([H])(C([H])([H])[H])C([H])([H])[H])C([H])([H])c1c([H])c([H])c([H])c([H])c1[H]


 73 76  0  0  0  0  0  0  0  0999 V2000
   16.5879   41.9752  137.3687 C   0  0  0  0  0  0  0  0  0  0  0  0
   15.8616   40.9965  137.6015 O   0  0  0  0  0  0  0  0  0  0  0  0
   17.9939   42.0072  137.4214 N   0  0  0  0  0  0  0  0  0  0  0  0
   18.5131   42.8702  137.1806 H   0  0  0  0  0  0  0  0  0  0  0  0
   18.8259   40.8469  137.8058 C   0  0  0  0  0  0  0  0  0  0  0  0
   19.0122   40.8686  139.2468 C   0  0  0  0  0  0  0  0  0  0  0  0
   17.9563   40.8243  139.9692 O   0  0  0  0  0  0  0  0  0  0  0  0
   20.2481   40.9376  139.9485 N   0  0  0  0  0  0  0  0  0  0  0  0
   21.1244   40.9335  139.3998 H   0  0  0  0  0  0  0  0  0  0  0  0
   20.2165   41.0017  141.4256 C   0  0  0  0  0  0  0  0  0  0  0  0
   19.8695   39.6630  141.9702 C   0  0  0  0  0  0  0  0  0  0  0  0
   20.4889   39.3373  143.0318 O   0  0  0  0  0  0  0  0  0  0  0  0
   18.9187   38.8127  141.3627 N   0  0  0  0  0  0  0  0  0  0  0  0
   18.4557   39.1695  140.4892 H   0  0  0  0  0  0  0  0  0  0  0  0
   18.5740   37.5263  141.8780 C   0  0  0  0  0  0  0  0  0  0  0  0
   18.6176   36.4574  140.8636 C   0  0  0  0  0  0  0  0  0  0  0  0
   19.2719   35.4004  141.0830 O   0  0  0  0  0  0  0  0  0  0  0  0
   17.9540   36.5406  139.6125 N   0  0  0  0  0  0  0  0  0  0  0  0
   17.4038   37.3866  139.3993 H   0  0  0  0  0  0  0  0  0  0  0  0
   18.0119   35.4888  138.6216 C   0  0  0  0  0  0  0  0  0  0  0  0
   17.1424   34.3410  139.0145 C   0  0  0  0  0  0  0  0  0  0  0  0
   15.8553   34.5119  139.4991 O   0  0  0  0  0  0  0  0  0  0  0  0
   17.5462   33.1439  138.9224 O   0  0  0  0  0  0  0  0  0  0  0  0
   15.5697   34.2427  140.4311 H   0  0  0  0  0  0  0  0  0  0  0  0
   19.4028   35.0931  138.2631 C   0  0  0  0  0  0  0  0  0  0  0  0
   19.7488   35.3390  136.8574 C   0  0  0  0  0  0  0  0  0  0  0  0
   20.0480   34.3105  136.0029 C   0  0  0  0  0  0  0  0  0  0  0  0
   20.3696   34.5943  134.6827 C   0  0  0  0  0  0  0  0  0  0  0  0
   20.3922   35.8910  134.2193 C   0  0  0  0  0  0  0  0  0  0  0  0
   20.0868   36.9033  135.1012 C   0  0  0  0  0  0  0  0  0  0  0  0
   19.7689   36.6246  136.4053 C   0  0  0  0  0  0  0  0  0  0  0  0
   17.2196   37.5431  142.5820 C   0  0  0  0  0  0  0  0  0  0  0  0
   17.1289   38.5043  143.7095 C   0  0  0  0  0  0  0  0  0  0  0  0
   16.7307   36.1530  142.8681 C   0  0  0  0  0  0  0  0  0  0  0  0
   19.2079   42.0499  141.8085 C   0  0  0  0  0  0  0  0  0  0  0  0
   18.6748   41.8284  143.1805 C   0  0  0  0  0  0  0  0  0  0  0  0
   19.7169   43.4421  141.5689 C   0  0  0  0  0  0  0  0  0  0  0  0
   20.1940   41.0441  137.0903 C   0  0  0  0  0  0  0  0  0  0  0  0
   20.7964   42.3603  137.4496 C   0  0  0  0  0  0  0  0  0  0  0  0
   21.0726   39.8966  137.4934 C   0  0  0  0  0  0  0  0  0  0  0  0
   15.9399   43.3001  136.9810 C   0  0  0  0  0  0  0  0  0  0  0  0
   14.8282   43.0622  136.1373 N   0  0  0  0  0  0  0  0  0  0  0  0
   14.1622   44.0445  135.3763 C   0  0  0  0  0  0  0  0  0  0  0  0
   14.6297   45.2363  135.4212 O   0  0  0  0  0  0  0  0  0  0  0  0
   14.4224   42.0523  136.0540 H   0  0  0  0  0  0  0  0  0  0  0  0
   12.9883   43.8524  134.5495 C   0  0  0  0  0  0  0  0  0  0  0  0
   12.4574   45.1273  134.0351 N   0  0  0  0  0  0  0  0  0  0  0  0
   11.0864   45.3135  133.8064 C   0  0  0  0  0  0  0  0  0  0  0  0
   10.2570   44.4002  134.0259 O   0  0  0  0  0  0  0  0  0  0  0  0
   13.1173   45.9062  133.8364 H   0  0  0  0  0  0  0  0  0  0  0  0
   10.5900   46.5931  133.3045 C   0  0  0  0  0  0  0  0  0  0  0  0
    9.8342   46.7803  132.2020 N   0  0  0  0  0  0  0  0  0  0  0  0
    9.5633   48.0796  132.0363 C   0  0  0  0  0  0  0  0  0  0  0  0
    8.8356   48.7850  131.0684 C   0  0  0  0  0  0  0  0  0  0  0  0
    8.7229   50.1539  131.1476 C   0  0  0  0  0  0  0  0  0  0  0  0
    9.3257   50.8398  132.1780 C   0  0  0  0  0  0  0  0  0  0  0  0
   10.0441   50.1273  133.1326 C   0  0  0  0  0  0  0  0  0  0  0  0
   10.1549   48.7678  133.0529 C   0  0  0  0  0  0  0  0  0  0  0  0
   10.8060   47.8335  133.8587 C   0  0  0  0  0  0  0  0  0  0  0  0
   11.5068   48.1963  134.9805 O   0  0  0  0  0  0  0  0  0  0  0  0
    9.5066   46.0192  131.5665 H   0  0  0  0  0  0  0  0  0  0  0  0
   11.9988   47.6107  135.6110 H   0  0  0  0  0  0  0  0  0  0  0  0
   12.8022   42.7437  133.6244 C   0  0  0  0  0  0  0  0  0  0  0  0
   12.1408   42.8837  132.3502 C   0  0  0  0  0  0  0  0  0  0  0  0
   11.0225   42.1570  132.0373 C   0  0  0  0  0  0  0  0  0  0  0  0
   10.3576   42.2603  130.8404 C   0  0  0  0  0  0  0  0  0  0  0  0
   10.8105   43.1347  129.8698 C   0  0  0  0  0  0  0  0  0  0  0  0
   11.9245   43.8704  130.1581 C   0  0  0  0  0  0  0  0  0  0  0  0
   12.5877   43.7646  131.3585 C   0  0  0  0  0  0  0  0  0  0  0  0
   15.7384   44.0303  138.2341 C   0  0  0  0  0  0  0  0  0  0  0  0
   15.7071   43.0212  140.4201 C   0  0  0  0  0  0  0  0  0  0  0  0
   16.5756   43.8536  139.4201 C   0  0  0  0  0  0  0  0  0  0  0  0
   16.9862   45.0458  140.2036 C   0  0  0  0  0  0  0  0  0  0  0  0
 71 72  1  0  0  0
 72 73  1  0  0  0
 72 70  1  0  0  0
 70 41  1  0  0  0
 41 42  1  0  0  0
 42 43  1  0  0  0
 43 44  2  0  0  0
 43 46  1  0  0  0
 46 63  1  0  0  0
 63 64  1  0  0  0
 64 65  2  0  0  0
 65 66  1  0  0  0
 66 67  2  0  0  0
 67 68  1  0  0  0
 68 69  2  0  0  0
 46 47  1  0  0  0
 47 48  1  0  0  0
 48 49  2  0  0  0
 48 51  1  0  0  0
 51 52  1  0  0  0
 52 53  1  0  0  0
 53 54  2  0  0  0
 54 55  1  0  0  0
 55 56  2  0  0  0
 56 57  1  0  0  0
 57 58  2  0  0  0
 58 59  1  0  0  0
 59 60  1  0  0  0
 41  1  1  0  0  0
  1  2  2  0  0  0
  1  3  1  0  0  0
  3  5  1  0  0  0
  5 38  1  0  0  0
 38 39  1  0  0  0
 38 40  1  0  0  0
  5  6  1  0  0  0
  6  7  2  0  0  0
  6  8  1  0  0  0
  8 10  1  0  0  0
 10 35  1  0  0  0
 35 36  1  0  0  0
 35 37  1  0  0  0
 10 11  1  0  0  0
 11 12  2  0  0  0
 11 13  1  0  0  0
 13 15  1  0  0  0
 15 32  1  0  0  0
 32 33  1  0  0  0
 32 34  1  0  0  0
 15 16  1  0  0  0
 16 17  2  0  0  0
 16 18  1  0  0  0
 18 20  1  0  0  0
 20 25  1  0  0  0
 25 26  1  0  0  0
 26 27  2  0  0  0
 27 28  1  0  0  0
 28 29  2  0  0  0
 29 30  1  0  0  0
 30 31  2  0  0  0
 20 21  1  0  0  0
 21 22  1  0  0  0
 21 23  2  0  0  0
 69 64  1  0  0  0
 59 51  2  0  0  0
 31 26  1  0  0  0
 58 53  1  0  0  0
 42 45  1  0  0  0
 47 50  1  0  0  0
 52 61  1  0  0  0
 60 62  1  0  0  0
  3  4  1  0  0  0
  8  9  1  0  0  0
 13 14  1  0  0  0
 18 19  1  0  0  0
 22 24  1  0  0  0
M  END
> <minimizedAffinity>
7.27731

> <CNNscore>
0.3601214886

> <CNNaffinity>
7.3360304832

> <CNN_VS>
2.6418621540

> <CNNaffinity_variance>
0.6703497171

$$$$
[H]OC(=O)[C@@]([H])(N([H])C(=O)[C@@]([H])(N([H])C(=O)[C@@]([H])(N([H])C(=O)[C@@]([H])(N([H])C(=O)[C@@]([H])(N([H])C(=O)[C@@]([H])(N([H])C(=O)c1c(O[H])c2c([H])c([H])c([H])c([H])c2n1[H])C([H])([H])c1c([H])c([H])c([H])c([H])c1[H])C([H])([H])C([H])(C([H])([H])[H])C([H])([H])[H])C([H])(C([H])([H])[H])C([H])([H])[H])C([H])(C([H])([H])[H])C([H])([H])[H])C([H])(C([H])([H])[H])C([H])([H])[H])C([H])([H])c1c([H])c([H])c([H])c([H])c1[H]


 73 76  0  0  0  0  0  0  0  0999 V2000
   12.6925   44.5690  133.8970 C   0  0  0  0  0  0  0  0  0  0  0  0
   13.5190   45.4695  134.1101 O   0  0  0  0  0  0  0  0  0  0  0  0
   11.8956   44.4175  132.7469 N   0  0  0  0  0  0  0  0  0  0  0  0
   11.2526   43.6115  132.6509 H   0  0  0  0  0  0  0  0  0  0  0  0
   11.9116   45.3615  131.6089 C   0  0  0  0  0  0  0  0  0  0  0  0
   10.8563   46.3410  131.8058 C   0  0  0  0  0  0  0  0  0  0  0  0
    9.9862   46.0831  132.7087 O   0  0  0  0  0  0  0  0  0  0  0  0
   10.6803   47.5627  131.0980 N   0  0  0  0  0  0  0  0  0  0  0  0
   11.3863   47.8249  130.3896 H   0  0  0  0  0  0  0  0  0  0  0  0
    9.5034   48.3988  131.4183 C   0  0  0  0  0  0  0  0  0  0  0  0
    8.8320   48.8094  130.1575 C   0  0  0  0  0  0  0  0  0  0  0  0
    9.1636   48.1396  129.1288 O   0  0  0  0  0  0  0  0  0  0  0  0
    7.8897   49.8606  130.0994 N   0  0  0  0  0  0  0  0  0  0  0  0
    7.6770   50.3547  131.0023 H   0  0  0  0  0  0  0  0  0  0  0  0
    7.2353   50.2620  128.8954 C   0  0  0  0  0  0  0  0  0  0  0  0
    7.1391   51.7249  128.7402 C   0  0  0  0  0  0  0  0  0  0  0  0
    6.9407   52.4585  129.7482 O   0  0  0  0  0  0  0  0  0  0  0  0
    7.2547   52.3870  127.4908 N   0  0  0  0  0  0  0  0  0  0  0  0
    7.4234   51.8216  126.6448 H   0  0  0  0  0  0  0  0  0  0  0  0
    7.1493   53.8224  127.3502 C   0  0  0  0  0  0  0  0  0  0  0  0
    5.8745   54.1968  126.6700 C   0  0  0  0  0  0  0  0  0  0  0  0
    4.8132   53.3156  126.5373 O   0  0  0  0  0  0  0  0  0  0  0  0
    5.7026   55.3507  126.1766 O   0  0  0  0  0  0  0  0  0  0  0  0
    4.4684   52.9876  125.6449 H   0  0  0  0  0  0  0  0  0  0  0  0
    8.3590   54.4453  126.7431 C   0  0  0  0  0  0  0  0  0  0  0  0
    8.2874   54.5871  125.2834 C   0  0  0  0  0  0  0  0  0  0  0  0
    8.0744   53.5064  124.4683 C   0  0  0  0  0  0  0  0  0  0  0  0
    8.0154   53.6917  123.0939 C   0  0  0  0  0  0  0  0  0  0  0  0
    8.1668   54.9426  122.5380 C   0  0  0  0  0  0  0  0  0  0  0  0
    8.3792   56.0093  123.3822 C   0  0  0  0  0  0  0  0  0  0  0  0
    8.4377   55.8279  124.7398 C   0  0  0  0  0  0  0  0  0  0  0  0
    5.8592   49.6160  128.7569 C   0  0  0  0  0  0  0  0  0  0  0  0
    4.8822   50.0308  129.7946 C   0  0  0  0  0  0  0  0  0  0  0  0
    5.9666   48.1386  128.5145 C   0  0  0  0  0  0  0  0  0  0  0  0
    9.9933   49.5790  132.2119 C   0  0  0  0  0  0  0  0  0  0  0  0
    9.1444   50.7821  131.9935 C   0  0  0  0  0  0  0  0  0  0  0  0
   10.2108   49.2399  133.6584 C   0  0  0  0  0  0  0  0  0  0  0  0
   11.6157   44.5095  130.3405 C   0  0  0  0  0  0  0  0  0  0  0  0
   12.8475   44.3360  129.5179 C   0  0  0  0  0  0  0  0  0  0  0  0
   11.0654   43.1950  130.8101 C   0  0  0  0  0  0  0  0  0  0  0  0
   12.4829   43.4929  134.9570 C   0  0  0  0  0  0  0  0  0  0  0  0
   13.6961   43.2565  135.6476 N   0  0  0  0  0  0  0  0  0  0  0  0
   13.8010   42.6758  136.9279 C   0  0  0  0  0  0  0  0  0  0  0  0
   12.7141   42.2940  137.4884 O   0  0  0  0  0  0  0  0  0  0  0  0
   14.6426   43.5439  135.1862 H   0  0  0  0  0  0  0  0  0  0  0  0
   15.0155   42.4720  137.6907 C   0  0  0  0  0  0  0  0  0  0  0  0
   15.5559   41.1117  137.5205 N   0  0  0  0  0  0  0  0  0  0  0  0
   15.8761   40.3049  138.6220 C   0  0  0  0  0  0  0  0  0  0  0  0
   15.7199   40.7110  139.7971 O   0  0  0  0  0  0  0  0  0  0  0  0
   15.7038   40.7432  136.5592 H   0  0  0  0  0  0  0  0  0  0  0  0
   16.4017   38.9564  138.4200 C   0  0  0  0  0  0  0  0  0  0  0  0
   17.6762   38.6324  138.1162 N   0  0  0  0  0  0  0  0  0  0  0  0
   17.8061   37.3064  137.9995 C   0  0  0  0  0  0  0  0  0  0  0  0
   18.8970   36.4788  137.7006 C   0  0  0  0  0  0  0  0  0  0  0  0
   18.7355   35.1137  137.6423 C   0  0  0  0  0  0  0  0  0  0  0  0
   17.5005   34.5520  137.8763 C   0  0  0  0  0  0  0  0  0  0  0  0
   16.4265   35.3847  138.1729 C   0  0  0  0  0  0  0  0  0  0  0  0
   16.5883   36.7402  138.2307 C   0  0  0  0  0  0  0  0  0  0  0  0
   15.6954   37.7784  138.4973 C   0  0  0  0  0  0  0  0  0  0  0  0
   14.3716   37.5520  138.7754 O   0  0  0  0  0  0  0  0  0  0  0  0
   18.4527   39.3191  137.9892 H   0  0  0  0  0  0  0  0  0  0  0  0
   13.6654   38.2183  138.9756 H   0  0  0  0  0  0  0  0  0  0  0  0
   16.0523   43.4772  137.8767 C   0  0  0  0  0  0  0  0  0  0  0  0
   16.9943   43.4444  138.9687 C   0  0  0  0  0  0  0  0  0  0  0  0
   16.7232   44.0447  140.1698 C   0  0  0  0  0  0  0  0  0  0  0  0
   17.5864   44.0353  141.2376 C   0  0  0  0  0  0  0  0  0  0  0  0
   18.8078   43.3953  141.1352 C   0  0  0  0  0  0  0  0  0  0  0  0
   19.1013   42.7893  139.9469 C   0  0  0  0  0  0  0  0  0  0  0  0
   18.2338   42.8004  138.8795 C   0  0  0  0  0  0  0  0  0  0  0  0
   11.3002   43.9025  135.7166 C   0  0  0  0  0  0  0  0  0  0  0  0
   10.0130   45.7616  136.5444 C   0  0  0  0  0  0  0  0  0  0  0  0
   10.3620   44.9300  135.2662 C   0  0  0  0  0  0  0  0  0  0  0  0
    9.0399   44.5210  134.7289 C   0  0  0  0  0  0  0  0  0  0  0  0
 71 72  1  0  0  0
 72 73  1  0  0  0
 72 70  1  0  0  0
 70 41  1  0  0  0
 41 42  1  0  0  0
 42 43  1  0  0  0
 43 44  2  0  0  0
 43 46  1  0  0  0
 46 63  1  0  0  0
 63 64  1  0  0  0
 64 65  2  0  0  0
 65 66  1  0  0  0
 66 67  2  0  0  0
 67 68  1  0  0  0
 68 69  2  0  0  0
 46 47  1  0  0  0
 47 48  1  0  0  0
 48 49  2  0  0  0
 48 51  1  0  0  0
 51 52  1  0  0  0
 52 53  1  0  0  0
 53 54  2  0  0  0
 54 55  1  0  0  0
 55 56  2  0  0  0
 56 57  1  0  0  0
 57 58  2  0  0  0
 58 59  1  0  0  0
 59 60  1  0  0  0
 41  1  1  0  0  0
  1  2  2  0  0  0
  1  3  1  0  0  0
  3  5  1  0  0  0
  5 38  1  0  0  0
 38 39  1  0  0  0
 38 40  1  0  0  0
  5  6  1  0  0  0
  6  7  2  0  0  0
  6  8  1  0  0  0
  8 10  1  0  0  0
 10 35  1  0  0  0
 35 36  1  0  0  0
 35 37  1  0  0  0
 10 11  1  0  0  0
 11 12  2  0  0  0
 11 13  1  0  0  0
 13 15  1  0  0  0
 15 32  1  0  0  0
 32 33  1  0  0  0
 32 34  1  0  0  0
 15 16  1  0  0  0
 16 17  2  0  0  0
 16 18  1  0  0  0
 18 20  1  0  0  0
 20 25  1  0  0  0
 25 26  1  0  0  0
 26 27  2  0  0  0
 27 28  1  0  0  0
 28 29  2  0  0  0
 29 30  1  0  0  0
 30 31  2  0  0  0
 20 21  1  0  0  0
 21 22  1  0  0  0
 21 23  2  0  0  0
 69 64  1  0  0  0
 59 51  2  0  0  0
 31 26  1  0  0  0
 58 53  1  0  0  0
 42 45  1  0  0  0
 47 50  1  0  0  0
 52 61  1  0  0  0
 60 62  1  0  0  0
  3  4  1  0  0  0
  8  9  1  0  0  0
 13 14  1  0  0  0
 18 19  1  0  0  0
 22 24  1  0  0  0
M  END
> <minimizedAffinity>
9.34566

> <CNNscore>
0.3590653539

> <CNNaffinity>
7.8088274002

> <CNN_VS>
2.8038792610

> <CNNaffinity_variance>
0.3762781024

$$$$
[H]c1nc([H])c([H])c(-c2nc3c([H])c(N([H])C(=O)[C@@]([H])(Oc4c([H])c([H])c([H])c5c([H])c([H])c([H])c([H])c45)C([H])([H])[H])c([H])c([H])c3o2)c1[H]


 32 36  0  0  0  0  0  0  0  0999 V2000
    8.9792   42.8632  132.4628 C   0  0  0  0  0  0  0  0  0  0  0  0
    7.7337   42.8217  132.5435 O   0  0  0  0  0  0  0  0  0  0  0  0
    9.7022   43.7216  131.6148 N   0  0  0  0  0  0  0  0  0  0  0  0
   10.7734   43.6545  131.6403 H   0  0  0  0  0  0  0  0  0  0  0  0
    9.1628   44.6734  130.7281 C   0  0  0  0  0  0  0  0  0  0  0  0
    8.8044   44.4238  129.4345 C   0  0  0  0  0  0  0  0  0  0  0  0
    8.2989   45.4055  128.6043 C   0  0  0  0  0  0  0  0  0  0  0  0
    8.1452   46.6823  129.0842 C   0  0  0  0  0  0  0  0  0  0  0  0
    7.6994   47.8075  128.5466 O   0  0  0  0  0  0  0  0  0  0  0  0
    7.7281   48.8061  129.3825 C   0  0  0  0  0  0  0  0  0  0  0  0
    8.2214   48.3107  130.5384 N   0  0  0  0  0  0  0  0  0  0  0  0
    8.4870   47.0016  130.3805 C   0  0  0  0  0  0  0  0  0  0  0  0
    8.9820   45.9974  131.1603 C   0  0  0  0  0  0  0  0  0  0  0  0
    7.3221   50.1933  129.1640 C   0  0  0  0  0  0  0  0  0  0  0  0
    7.5160   50.8460  127.9698 C   0  0  0  0  0  0  0  0  0  0  0  0
    7.1133   52.1753  127.7989 C   0  0  0  0  0  0  0  0  0  0  0  0
    6.5224   52.8319  128.8257 N   0  0  0  0  0  0  0  0  0  0  0  0
    6.3230   52.2140  130.0006 C   0  0  0  0  0  0  0  0  0  0  0  0
    6.7177   50.8965  130.1828 C   0  0  0  0  0  0  0  0  0  0  0  0
    8.7446   41.1774  134.2204 C   0  0  0  0  0  0  0  0  0  0  0  0
    9.7459   41.9130  133.3498 C   0  0  0  0  0  0  0  0  0  0  0  0
   10.5948   42.6484  134.1742 O   0  0  0  0  0  0  0  0  0  0  0  0
   11.1539   43.8691  133.9656 C   0  0  0  0  0  0  0  0  0  0  0  0
   12.4339   44.0084  133.5383 C   0  0  0  0  0  0  0  0  0  0  0  0
   13.0204   45.2484  133.3202 C   0  0  0  0  0  0  0  0  0  0  0  0
   12.2694   46.3752  133.5480 C   0  0  0  0  0  0  0  0  0  0  0  0
   10.9726   46.2740  133.9803 C   0  0  0  0  0  0  0  0  0  0  0  0
   10.2308   47.4242  134.2046 C   0  0  0  0  0  0  0  0  0  0  0  0
    8.9406   47.3248  134.6346 C   0  0  0  0  0  0  0  0  0  0  0  0
    8.4026   46.0773  134.8367 C   0  0  0  0  0  0  0  0  0  0  0  0
    9.1124   44.9167  134.6232 C   0  0  0  0  0  0  0  0  0  0  0  0
   10.4215   45.0396  134.1865 C   0  0  0  0  0  0  0  0  0  0  0  0
 20 21  1  0  0  0
 21 22  1  0  0  0
 22 23  1  0  0  0
 23 24  2  0  0  0
 24 25  1  0  0  0
 25 26  2  0  0  0
 26 27  1  0  0  0
 27 28  2  0  0  0
 28 29  1  0  0  0
 29 30  2  0  0  0
 30 31  1  0  0  0
 31 32  2  0  0  0
 21  1  1  0  0  0
  1  2  2  0  0  0
  1  3  1  0  0  0
  3  5  1  0  0  0
  5  6  2  0  0  0
  6  7  1  0  0  0
  7  8  2  0  0  0
  8  9  1  0  0  0
  9 10  1  0  0  0
 10 11  2  0  0  0
 11 12  1  0  0  0
 12 13  2  0  0  0
 10 14  1  0  0  0
 14 15  2  0  0  0
 15 16  1  0  0  0
 16 17  2  0  0  0
 17 18  1  0  0  0
 18 19  2  0  0  0
 32 23  1  0  0  0
 13  5  1  0  0  0
 19 14  1  0  0  0
 32 27  1  0  0  0
 12  8  1  0  0  0
  3  4  1  0  0  0
M  END
> <minimizedAffinity>
5.00597

> <CNNscore>
0.4831972420

> <CNNaffinity>
7.7106232643

> <CNN_VS>
3.7257518768

> <CNNaffinity_variance>
1.3967338800

$$$$
[H]c1nc([H])c([H])c(-c2nc3c([H])c(N([H])C(=O)[C@@]([H])(Oc4c([H])c([H])c([H])c5c([H])c([H])c([H])c([H])c45)C([H])([H])[H])c([H])c([H])c3o2)c1[H]


 32 36  0  0  0  0  0  0  0  0999 V2000
   10.6728   42.3837  130.6625 C   0  0  0  0  0  0  0  0  0  0  0  0
    9.9495   41.9342  129.7491 O   0  0  0  0  0  0  0  0  0  0  0  0
   10.9437   43.7473  130.8768 N   0  0  0  0  0  0  0  0  0  0  0  0
   11.5859   44.0005  131.6991 H   0  0  0  0  0  0  0  0  0  0  0  0
   10.4526   44.8284  130.1197 C   0  0  0  0  0  0  0  0  0  0  0  0
   10.6877   45.0233  128.7890 C   0  0  0  0  0  0  0  0  0  0  0  0
   10.1953   46.1169  128.1031 C   0  0  0  0  0  0  0  0  0  0  0  0
    9.4403   47.0486  128.7708 C   0  0  0  0  0  0  0  0  0  0  0  0
    8.8455   48.1718  128.3986 O   0  0  0  0  0  0  0  0  0  0  0  0
    8.2212   48.7558  129.3815 C   0  0  0  0  0  0  0  0  0  0  0  0
    8.4155   47.9722  130.4646 N   0  0  0  0  0  0  0  0  0  0  0  0
    9.1651   46.9118  130.1142 C   0  0  0  0  0  0  0  0  0  0  0  0
    9.6741   45.8151  130.7465 C   0  0  0  0  0  0  0  0  0  0  0  0
    7.4552   50.0007  129.3669 C   0  0  0  0  0  0  0  0  0  0  0  0
    6.5526   50.3304  130.3499 C   0  0  0  0  0  0  0  0  0  0  0  0
    5.8376   51.5325  130.3011 C   0  0  0  0  0  0  0  0  0  0  0  0
    6.0366   52.3869  129.2691 N   0  0  0  0  0  0  0  0  0  0  0  0
    6.9132   52.0853  128.2983 C   0  0  0  0  0  0  0  0  0  0  0  0
    7.6280   50.8969  128.3351 C   0  0  0  0  0  0  0  0  0  0  0  0
   10.6951   40.0142  131.2718 C   0  0  0  0  0  0  0  0  0  0  0  0
   11.2923   41.3710  131.5943 C   0  0  0  0  0  0  0  0  0  0  0  0
   10.9610   41.7010  132.9067 O   0  0  0  0  0  0  0  0  0  0  0  0
   10.2328   42.7486  133.3741 C   0  0  0  0  0  0  0  0  0  0  0  0
    8.8825   42.6885  133.4907 C   0  0  0  0  0  0  0  0  0  0  0  0
    8.1234   43.7500  133.9664 C   0  0  0  0  0  0  0  0  0  0  0  0
    8.7714   44.9042  134.3318 C   0  0  0  0  0  0  0  0  0  0  0  0
   10.1346   45.0021  134.2280 C   0  0  0  0  0  0  0  0  0  0  0  0
   10.7702   46.1766  134.6022 C   0  0  0  0  0  0  0  0  0  0  0  0
   12.1263   46.2752  134.4995 C   0  0  0  0  0  0  0  0  0  0  0  0
   12.8357   45.1996  134.0236 C   0  0  0  0  0  0  0  0  0  0  0  0
   12.2348   44.0201  133.6439 C   0  0  0  0  0  0  0  0  0  0  0  0
   10.8561   43.9406  133.7561 C   0  0  0  0  0  0  0  0  0  0  0  0
 20 21  1  0  0  0
 21 22  1  0  0  0
 22 23  1  0  0  0
 23 24  2  0  0  0
 24 25  1  0  0  0
 25 26  2  0  0  0
 26 27  1  0  0  0
 27 28  2  0  0  0
 28 29  1  0  0  0
 29 30  2  0  0  0
 30 31  1  0  0  0
 31 32  2  0  0  0
 21  1  1  0  0  0
  1  2  2  0  0  0
  1  3  1  0  0  0
  3  5  1  0  0  0
  5  6  2  0  0  0
  6  7  1  0  0  0
  7  8  2  0  0  0
  8  9  1  0  0  0
  9 10  1  0  0  0
 10 11  2  0  0  0
 11 12  1  0  0  0
 12 13  2  0  0  0
 10 14  1  0  0  0
 14 15  2  0  0  0
 15 16  1  0  0  0
 16 17  2  0  0  0
 17 18  1  0  0  0
 18 19  2  0  0  0
 32 23  1  0  0  0
 13  5  1  0  0  0
 19 14  1  0  0  0
 32 27  1  0  0  0
 12  8  1  0  0  0
  3  4  1  0  0  0
M  END
> <minimizedAffinity>
6.71734

> <CNNscore>
0.4550720453

> <CNNaffinity>
7.7067975998

> <CNN_VS>
3.5071482658

> <CNNaffinity_variance>
1.6479692459

$$$$
[H]c1nc([H])c([H])c(-c2nc3c([H])c(N([H])C(=O)[C@@]([H])(Oc4c([H])c([H])c([H])c5c([H])c([H])c([H])c([H])c45)C([H])([H])[H])c([H])c([H])c3o2)c1[H]


 32 36  0  0  0  0  0  0  0  0999 V2000
   10.7539   42.5600  130.9129 C   0  0  0  0  0  0  0  0  0  0  0  0
    9.6471   42.1805  130.4765 O   0  0  0  0  0  0  0  0  0  0  0  0
   11.3110   43.8331  130.6946 N   0  0  0  0  0  0  0  0  0  0  0  0
   12.2745   44.0314  131.1247 H   0  0  0  0  0  0  0  0  0  0  0  0
   10.7297   44.8886  129.9657 C   0  0  0  0  0  0  0  0  0  0  0  0
   10.8556   45.0726  128.6187 C   0  0  0  0  0  0  0  0  0  0  0  0
   10.2782   46.1414  127.9609 C   0  0  0  0  0  0  0  0  0  0  0  0
    9.5480   47.0589  128.6745 C   0  0  0  0  0  0  0  0  0  0  0  0
    8.8916   48.1585  128.3369 O   0  0  0  0  0  0  0  0  0  0  0  0
    8.3269   48.7365  129.3586 C   0  0  0  0  0  0  0  0  0  0  0  0
    8.6282   47.9738  130.4321 N   0  0  0  0  0  0  0  0  0  0  0  0
    9.3813   46.9319  130.0366 C   0  0  0  0  0  0  0  0  0  0  0  0
    9.9714   45.8597  130.6398 C   0  0  0  0  0  0  0  0  0  0  0  0
    7.5236   49.9574  129.3895 C   0  0  0  0  0  0  0  0  0  0  0  0
    7.6157   50.9331  128.4255 C   0  0  0  0  0  0  0  0  0  0  0  0
    6.8293   52.0890  128.4895 C   0  0  0  0  0  0  0  0  0  0  0  0
    5.9624   52.2514  129.5175 N   0  0  0  0  0  0  0  0  0  0  0  0
    5.8561   51.3114  130.4699 C   0  0  0  0  0  0  0  0  0  0  0  0
    6.6300   50.1611  130.4178 C   0  0  0  0  0  0  0  0  0  0  0  0
   10.7628   40.2569  131.7384 C   0  0  0  0  0  0  0  0  0  0  0  0
   11.5351   41.5627  131.7329 C   0  0  0  0  0  0  0  0  0  0  0  0
   11.6292   42.0281  133.0427 O   0  0  0  0  0  0  0  0  0  0  0  0
   11.6457   43.3061  133.5038 C   0  0  0  0  0  0  0  0  0  0  0  0
   12.8039   43.9452  133.8052 C   0  0  0  0  0  0  0  0  0  0  0  0
   12.8382   45.2510  134.2775 C   0  0  0  0  0  0  0  0  0  0  0  0
   11.6489   45.9168  134.4438 C   0  0  0  0  0  0  0  0  0  0  0  0
   10.4588   45.3037  134.1499 C   0  0  0  0  0  0  0  0  0  0  0  0
    9.2683   45.9935  134.3249 C   0  0  0  0  0  0  0  0  0  0  0  0
    8.0836   45.3847  134.0327 C   0  0  0  0  0  0  0  0  0  0  0  0
    8.0986   44.0922  133.5683 C   0  0  0  0  0  0  0  0  0  0  0  0
    9.2630   43.3804  133.3838 C   0  0  0  0  0  0  0  0  0  0  0  0
   10.4556   44.0172  133.6865 C   0  0  0  0  0  0  0  0  0  0  0  0
 20 21  1  0  0  0
 21 22  1  0  0  0
 22 23  1  0  0  0
 23 24  2  0  0  0
 24 25  1  0  0  0
 25 26  2  0  0  0
 26 27  1  0  0  0
 27 28  2  0  0  0
 28 29  1  0  0  0
 29 30  2  0  0  0
 30 31  1  0  0  0
 31 32  2  0  0  0
 21  1  1  0  0  0
  1  2  2  0  0  0
  1  3  1  0  0  0
  3  5  1  0  0  0
  5  6  2  0  0  0
  6  7  1  0  0  0
  7  8  2  0  0  0
  8  9  1  0  0  0
  9 10  1  0  0  0
 10 11  2  0  0  0
 11 12  1  0  0  0
 12 13  2  0  0  0
 10 14  1  0  0  0
 14 15  2  0  0  0
 15 16  1  0  0  0
 16 17  2  0  0  0
 17 18  1  0  0  0
 18 19  2  0  0  0
 32 23  1  0  0  0
 13  5  1  0  0  0
 19 14  1  0  0  0
 32 27  1  0  0  0
 12  8  1  0  0  0
  3  4  1  0  0  0
M  END
> <minimizedAffinity>
4.16110

> <CNNscore>
0.4257633090

> <CNNaffinity>
7.6424283981

> <CNN_VS>
3.2538657188

> <CNNaffinity_variance>
1.1790434122

$$$$
[H]c1nc([H])c([H])c(-c2nc3c([H])c(N([H])C(=O)[C@@]([H])(Oc4c([H])c([H])c([H])c5c([H])c([H])c([H])c([H])c45)C([H])([H])[H])c([H])c([H])c3o2)c1[H]


 32 36  0  0  0  0  0  0  0  0999 V2000
    9.4354   45.8895  129.5730 C   0  0  0  0  0  0  0  0  0  0  0  0
   10.4020   46.5078  129.0800 O   0  0  0  0  0  0  0  0  0  0  0  0
    8.2392   46.4852  130.0124 N   0  0  0  0  0  0  0  0  0  0  0  0
    7.4857   45.8384  130.4203 H   0  0  0  0  0  0  0  0  0  0  0  0
    7.9208   47.8563  129.9699 C   0  0  0  0  0  0  0  0  0  0  0  0
    7.5144   48.5994  131.0407 C   0  0  0  0  0  0  0  0  0  0  0  0
    7.1949   49.9392  130.9329 C   0  0  0  0  0  0  0  0  0  0  0  0
    7.2855   50.5588  129.7115 C   0  0  0  0  0  0  0  0  0  0  0  0
    7.0537   51.7964  129.3011 O   0  0  0  0  0  0  0  0  0  0  0  0
    7.2739   51.9493  128.0263 C   0  0  0  0  0  0  0  0  0  0  0  0
    7.6742   50.7426  127.5697 N   0  0  0  0  0  0  0  0  0  0  0  0
    7.6897   49.8667  128.5903 C   0  0  0  0  0  0  0  0  0  0  0  0
    7.9937   48.5460  128.7486 C   0  0  0  0  0  0  0  0  0  0  0  0
    7.1324   53.1551  127.2122 C   0  0  0  0  0  0  0  0  0  0  0  0
    6.4124   54.2511  127.6249 C   0  0  0  0  0  0  0  0  0  0  0  0
    6.2998   55.3881  126.8167 C   0  0  0  0  0  0  0  0  0  0  0  0
    6.9094   55.4114  125.6074 N   0  0  0  0  0  0  0  0  0  0  0  0
    7.6175   54.3524  125.1844 C   0  0  0  0  0  0  0  0  0  0  0  0
    7.7367   53.2194  125.9760 C   0  0  0  0  0  0  0  0  0  0  0  0
    8.5260   43.7458  128.8223 C   0  0  0  0  0  0  0  0  0  0  0  0
    9.5830   44.3928  129.6973 C   0  0  0  0  0  0  0  0  0  0  0  0
    9.3508   44.0232  131.0205 O   0  0  0  0  0  0  0  0  0  0  0  0
   10.1798   44.0990  132.0943 C   0  0  0  0  0  0  0  0  0  0  0  0
   11.3511   43.4164  132.1461 C   0  0  0  0  0  0  0  0  0  0  0  0
   12.2096   43.4828  133.2359 C   0  0  0  0  0  0  0  0  0  0  0  0
   11.8532   44.2729  134.3009 C   0  0  0  0  0  0  0  0  0  0  0  0
   10.6775   44.9773  134.2846 C   0  0  0  0  0  0  0  0  0  0  0  0
   10.3356   45.7697  135.3704 C   0  0  0  0  0  0  0  0  0  0  0  0
    9.1662   46.4710  135.3554 C   0  0  0  0  0  0  0  0  0  0  0  0
    8.3486   46.3746  134.2560 C   0  0  0  0  0  0  0  0  0  0  0  0
    8.6593   45.5970  133.1627 C   0  0  0  0  0  0  0  0  0  0  0  0
    9.8518   44.8926  133.1979 C   0  0  0  0  0  0  0  0  0  0  0  0
 20 21  1  0  0  0
 21 22  1  0  0  0
 22 23  1  0  0  0
 23 24  2  0  0  0
 24 25  1  0  0  0
 25 26  2  0  0  0
 26 27  1  0  0  0
 27 28  2  0  0  0
 28 29  1  0  0  0
 29 30  2  0  0  0
 30 31  1  0  0  0
 31 32  2  0  0  0
 21  1  1  0  0  0
  1  2  2  0  0  0
  1  3  1  0  0  0
  3  5  1  0  0  0
  5  6  2  0  0  0
  6  7  1  0  0  0
  7  8  2  0  0  0
  8  9  1  0  0  0
  9 10  1  0  0  0
 10 11  2  0  0  0
 11 12  1  0  0  0
 12 13  2  0  0  0
 10 14  1  0  0  0
 14 15  2  0  0  0
 15 16  1  0  0  0
 16 17  2  0  0  0
 17 18  1  0  0  0
 18 19  2  0  0  0
 32 23  1  0  0  0
 13  5  1  0  0  0
 19 14  1  0  0  0
 32 27  1  0  0  0
 12  8  1  0  0  0
  3  4  1  0  0  0
M  END
> <minimizedAffinity>
1.23756

> <CNNscore>
0.4253423214

> <CNNaffinity>
7.0706777573

> <CNN_VS>
3.0074584484

> <CNNaffinity_variance>
0.1979625523

$$$$
[H]c1nc([H])c([H])c(-c2nc3c([H])c(N([H])C(=O)[C@@]([H])(Oc4c([H])c([H])c([H])c5c([H])c([H])c([H])c([H])c45)C([H])([H])[H])c([H])c([H])c3o2)c1[H]


 32 36  0  0  0  0  0  0  0  0999 V2000
    8.9457   47.4152  132.8707 C   0  0  0  0  0  0  0  0  0  0  0  0
   10.0705   47.8162  132.5052 O   0  0  0  0  0  0  0  0  0  0  0  0
    7.7538   47.5916  132.1447 N   0  0  0  0  0  0  0  0  0  0  0  0
    6.8511   47.1996  132.5737 H   0  0  0  0  0  0  0  0  0  0  0  0
    7.6189   48.2327  130.8981 C   0  0  0  0  0  0  0  0  0  0  0  0
    7.5276   47.5939  129.6949 C   0  0  0  0  0  0  0  0  0  0  0  0
    7.4175   48.2789  128.5002 C   0  0  0  0  0  0  0  0  0  0  0  0
    7.3972   49.6513  128.5081 C   0  0  0  0  0  0  0  0  0  0  0  0
    7.3035   50.5642  127.5532 O   0  0  0  0  0  0  0  0  0  0  0  0
    7.3239   51.7799  128.0208 C   0  0  0  0  0  0  0  0  0  0  0  0
    7.4376   51.6618  129.3616 N   0  0  0  0  0  0  0  0  0  0  0  0
    7.4848   50.3579  129.6881 C   0  0  0  0  0  0  0  0  0  0  0  0
    7.5923   49.6357  130.8408 C   0  0  0  0  0  0  0  0  0  0  0  0
    7.2435   53.0425  127.2885 C   0  0  0  0  0  0  0  0  0  0  0  0
    6.6478   54.1671  127.8080 C   0  0  0  0  0  0  0  0  0  0  0  0
    6.5903   55.3585  127.0758 C   0  0  0  0  0  0  0  0  0  0  0  0
    7.1299   55.4065  125.8344 N   0  0  0  0  0  0  0  0  0  0  0  0
    7.7166   54.3203  125.3075 C   0  0  0  0  0  0  0  0  0  0  0  0
    7.7800   53.1334  126.0230 C   0  0  0  0  0  0  0  0  0  0  0  0
   10.0601   47.1499  135.0326 C   0  0  0  0  0  0  0  0  0  0  0  0
    8.8834   46.6900  134.1927 C   0  0  0  0  0  0  0  0  0  0  0  0
    9.0091   45.3212  133.9646 O   0  0  0  0  0  0  0  0  0  0  0  0
    9.9936   44.6420  133.3200 C   0  0  0  0  0  0  0  0  0  0  0  0
   11.2008   44.4114  133.8945 C   0  0  0  0  0  0  0  0  0  0  0  0
   12.2176   43.7191  133.2496 C   0  0  0  0  0  0  0  0  0  0  0  0
   11.9858   43.2516  131.9794 C   0  0  0  0  0  0  0  0  0  0  0  0
   10.7785   43.4653  131.3666 C   0  0  0  0  0  0  0  0  0  0  0  0
   10.5643   42.9850  130.0833 C   0  0  0  0  0  0  0  0  0  0  0  0
    9.3636   43.1969  129.4725 C   0  0  0  0  0  0  0  0  0  0  0  0
    8.3875   43.8868  130.1491 C   0  0  0  0  0  0  0  0  0  0  0  0
    8.5689   44.3764  131.4234 C   0  0  0  0  0  0  0  0  0  0  0  0
    9.7958   44.1504  132.0260 C   0  0  0  0  0  0  0  0  0  0  0  0
 20 21  1  0  0  0
 21 22  1  0  0  0
 22 23  1  0  0  0
 23 24  2  0  0  0
 24 25  1  0  0  0
 25 26  2  0  0  0
 26 27  1  0  0  0
 27 28  2  0  0  0
 28 29  1  0  0  0
 29 30  2  0  0  0
 30 31  1  0  0  0
 31 32  2  0  0  0
 21  1  1  0  0  0
  1  2  2  0  0  0
  1  3  1  0  0  0
  3  5  1  0  0  0
  5  6  2  0  0  0
  6  7  1  0  0  0
  7  8  2  0  0  0
  8  9  1  0  0  0
  9 10  1  0  0  0
 10 11  2  0  0  0
 11 12  1  0  0  0
 12 13  2  0  0  0
 10 14  1  0  0  0
 14 15  2  0  0  0
 15 16  1  0  0  0
 16 17  2  0  0  0
 17 18  1  0  0  0
 18 19  2  0  0  0
 32 23  1  0  0  0
 13  5  1  0  0  0
 19 14  1  0  0  0
 32 27  1  0  0  0
 12  8  1  0  0  0
  3  4  1  0  0  0
M  END
> <minimizedAffinity>
0.99443

> <CNNscore>
0.4068669975

> <CNNaffinity>
7.2101554871

> <CNN_VS>
2.9335741997

> <CNNaffinity_variance>
0.1265971959

$$$$
[H]c1nc([H])c([H])c(-c2nc3c([H])c(N([H])C(=O)[C@@]([H])(Oc4c([H])c([H])c([H])c5c([H])c([H])c([H])c([H])c45)C([H])([H])[H])c([H])c([H])c3o2)c1[H]


 32 36  0  0  0  0  0  0  0  0999 V2000
    9.1299   45.9667  129.6087 C   0  0  0  0  0  0  0  0  0  0  0  0
   10.0699   46.5112  128.9926 O   0  0  0  0  0  0  0  0  0  0  0  0
    8.0010   46.6390  130.1111 N   0  0  0  0  0  0  0  0  0  0  0  0
    7.2643   46.0517  130.6258 H   0  0  0  0  0  0  0  0  0  0  0  0
    7.7304   48.0170  130.0056 C   0  0  0  0  0  0  0  0  0  0  0  0
    7.3359   48.8188  131.0378 C   0  0  0  0  0  0  0  0  0  0  0  0
    7.0640   50.1627  130.8685 C   0  0  0  0  0  0  0  0  0  0  0  0
    7.1917   50.7258  129.6232 C   0  0  0  0  0  0  0  0  0  0  0  0
    7.0079   51.9517  129.1572 O   0  0  0  0  0  0  0  0  0  0  0  0
    7.2498   52.0420  127.8804 C   0  0  0  0  0  0  0  0  0  0  0  0
    7.6143   50.8040  127.4814 N   0  0  0  0  0  0  0  0  0  0  0  0
    7.5865   49.9728  128.5385 C   0  0  0  0  0  0  0  0  0  0  0  0
    7.8429   48.6507  128.7573 C   0  0  0  0  0  0  0  0  0  0  0  0
    7.1603   53.2158  127.0137 C   0  0  0  0  0  0  0  0  0  0  0  0
    6.3780   54.3052  127.3151 C   0  0  0  0  0  0  0  0  0  0  0  0
    6.3183   55.4112  126.4597 C   0  0  0  0  0  0  0  0  0  0  0  0
    7.0425   55.4105  125.3151 N   0  0  0  0  0  0  0  0  0  0  0  0
    7.8133   54.3574  125.0009 C   0  0  0  0  0  0  0  0  0  0  0  0
    7.8810   53.2550  125.8404 C   0  0  0  0  0  0  0  0  0  0  0  0
    8.4483   43.7938  128.7143 C   0  0  0  0  0  0  0  0  0  0  0  0
    9.2333   44.4758  129.8189 C   0  0  0  0  0  0  0  0  0  0  0  0
    8.6525   44.1497  131.0426 O   0  0  0  0  0  0  0  0  0  0  0  0
    8.9317   44.6276  132.2834 C   0  0  0  0  0  0  0  0  0  0  0  0
    8.0365   45.3666  132.9858 C   0  0  0  0  0  0  0  0  0  0  0  0
    8.3060   45.8626  134.2549 C   0  0  0  0  0  0  0  0  0  0  0  0
    9.5294   45.5908  134.8161 C   0  0  0  0  0  0  0  0  0  0  0  0
   10.4593   44.8476  134.1367 C   0  0  0  0  0  0  0  0  0  0  0  0
   11.6892   44.5842  134.7211 C   0  0  0  0  0  0  0  0  0  0  0  0
   12.6152   43.8449  134.0462 C   0  0  0  0  0  0  0  0  0  0  0  0
   12.3044   43.3752  132.7935 C   0  0  0  0  0  0  0  0  0  0  0  0
   11.0929   43.6192  132.1860 C   0  0  0  0  0  0  0  0  0  0  0  0
   10.1661   44.3723  132.8885 C   0  0  0  0  0  0  0  0  0  0  0  0
 20 21  1  0  0  0
 21 22  1  0  0  0
 22 23  1  0  0  0
 23 24  2  0  0  0
 24 25  1  0  0  0
 25 26  2  0  0  0
 26 27  1  0  0  0
 27 28  2  0  0  0
 28 29  1  0  0  0
 29 30  2  0  0  0
 30 31  1  0  0  0
 31 32  2  0  0  0
 21  1  1  0  0  0
  1  2  2  0  0  0
  1  3  1  0  0  0
  3  5  1  0  0  0
  5  6  2  0  0  0
  6  7  1  0  0  0
  7  8  2  0  0  0
  8  9  1  0  0  0
  9 10  1  0  0  0
 10 11  2  0  0  0
 11 12  1  0  0  0
 12 13  2  0  0  0
 10 14  1  0  0  0
 14 15  2  0  0  0
 15 16  1  0  0  0
 16 17  2  0  0  0
 17 18  1  0  0  0
 18 19  2  0  0  0
 32 23  1  0  0  0
 13  5  1  0  0  0
 19 14  1  0  0  0
 32 27  1  0  0  0
 12  8  1  0  0  0
  3  4  1  0  0  0
M  END
> <minimizedAffinity>
0.65518

> <CNNscore>
0.3892065883

> <CNNaffinity>
6.9568915367

> <CNN_VS>
2.7076680660

> <CNNaffinity_variance>
0.1754076034

$$$$
[H]c1nc([H])c([H])c(-c2nc3c([H])c(N([H])C(=O)[C@@]([H])(Oc4c([H])c([H])c([H])c5c([H])c([H])c([H])c([H])c45)C([H])([H])[H])c([H])c([H])c3o2)c1[H]


 32 36  0  0  0  0  0  0  0  0999 V2000
    9.1698   48.6107  132.1684 C   0  0  0  0  0  0  0  0  0  0  0  0
   10.0651   49.2532  131.5808 O   0  0  0  0  0  0  0  0  0  0  0  0
    7.7935   48.7182  131.8985 N   0  0  0  0  0  0  0  0  0  0  0  0
    7.1267   48.1096  132.4796 H   0  0  0  0  0  0  0  0  0  0  0  0
    7.1911   49.5472  130.9325 C   0  0  0  0  0  0  0  0  0  0  0  0
    5.8492   49.6227  130.6925 C   0  0  0  0  0  0  0  0  0  0  0  0
    5.3174   50.4411  129.7148 C   0  0  0  0  0  0  0  0  0  0  0  0
    6.1565   51.2124  128.9499 C   0  0  0  0  0  0  0  0  0  0  0  0
    5.9533   52.0727  127.9638 O   0  0  0  0  0  0  0  0  0  0  0  0
    7.0618   52.5893  127.5153 C   0  0  0  0  0  0  0  0  0  0  0  0
    8.0535   52.0377  128.2481 N   0  0  0  0  0  0  0  0  0  0  0  0
    7.5211   51.1841  129.1408 C   0  0  0  0  0  0  0  0  0  0  0  0
    7.9970   50.3596  130.1183 C   0  0  0  0  0  0  0  0  0  0  0  0
    7.2473   53.5664  126.4440 C   0  0  0  0  0  0  0  0  0  0  0  0
    6.2880   54.4911  126.1061 C   0  0  0  0  0  0  0  0  0  0  0  0
    6.5026   55.4112  125.0736 C   0  0  0  0  0  0  0  0  0  0  0  0
    7.6744   55.3920  124.3944 N   0  0  0  0  0  0  0  0  0  0  0  0
    8.6252   54.4977  124.7075 C   0  0  0  0  0  0  0  0  0  0  0  0
    8.4246   53.5805  125.7288 C   0  0  0  0  0  0  0  0  0  0  0  0
   11.1294   47.5271  133.1542 C   0  0  0  0  0  0  0  0  0  0  0  0
    9.6203   47.6536  133.2447 C   0  0  0  0  0  0  0  0  0  0  0  0
    9.0550   46.4031  133.0042 O   0  0  0  0  0  0  0  0  0  0  0  0
    9.6565   45.2424  132.6339 C   0  0  0  0  0  0  0  0  0  0  0  0
   10.3340   44.4708  133.5207 C   0  0  0  0  0  0  0  0  0  0  0  0
   10.9544   43.2820  133.1586 C   0  0  0  0  0  0  0  0  0  0  0  0
   10.8755   42.8765  131.8491 C   0  0  0  0  0  0  0  0  0  0  0  0
   10.1997   43.6299  130.9248 C   0  0  0  0  0  0  0  0  0  0  0  0
   10.1316   43.2028  129.6069 C   0  0  0  0  0  0  0  0  0  0  0  0
    9.4595   43.9514  128.6864 C   0  0  0  0  0  0  0  0  0  0  0  0
    8.8614   45.1201  129.0903 C   0  0  0  0  0  0  0  0  0  0  0  0
    8.9108   45.5713  130.3905 C   0  0  0  0  0  0  0  0  0  0  0  0
    9.5985   44.7961  131.3101 C   0  0  0  0  0  0  0  0  0  0  0  0
 20 21  1  0  0  0
 21 22  1  0  0  0
 22 23  1  0  0  0
 23 24  2  0  0  0
 24 25  1  0  0  0
 25 26  2  0  0  0
 26 27  1  0  0  0
 27 28  2  0  0  0
 28 29  1  0  0  0
 29 30  2  0  0  0
 30 31  1  0  0  0
 31 32  2  0  0  0
 21  1  1  0  0  0
  1  2  2  0  0  0
  1  3  1  0  0  0
  3  5  1  0  0  0
  5  6  2  0  0  0
  6  7  1  0  0  0
  7  8  2  0  0  0
  8  9  1  0  0  0
  9 10  1  0  0  0
 10 11  2  0  0  0
 11 12  1  0  0  0
 12 13  2  0  0  0
 10 14  1  0  0  0
 14 15  2  0  0  0
 15 16  1  0  0  0
 16 17  2  0  0  0
 17 18  1  0  0  0
 18 19  2  0  0  0
 32 23  1  0  0  0
 13  5  1  0  0  0
 19 14  1  0  0  0
 32 27  1  0  0  0
 12  8  1  0  0  0
  3  4  1  0  0  0
M  END
> <minimizedAffinity>
5.31680

> <CNNscore>
0.3805818260

> <CNNaffinity>
7.0629816055

> <CNN_VS>
2.6880424023

> <CNNaffinity_variance>
0.1158784255

$$$$
[H]c1nc([H])c([H])c(-c2nc3c([H])c(N([H])C(=O)[C@@]([H])(Oc4c([H])c([H])c([H])c5c([H])c([H])c([H])c([H])c45)C([H])([H])[H])c([H])c([H])c3o2)c1[H]


 32 36  0  0  0  0  0  0  0  0999 V2000
    8.8119   47.1033  132.7551 C   0  0  0  0  0  0  0  0  0  0  0  0
    9.6928   47.9857  132.6852 O   0  0  0  0  0  0  0  0  0  0  0  0
    7.7850   46.9154  131.8124 N   0  0  0  0  0  0  0  0  0  0  0  0
    7.0881   46.1189  131.9927 H   0  0  0  0  0  0  0  0  0  0  0  0
    7.5742   47.6685  130.6412 C   0  0  0  0  0  0  0  0  0  0  0  0
    7.2657   47.1451  129.4186 C   0  0  0  0  0  0  0  0  0  0  0  0
    7.0908   47.9348  128.2985 C   0  0  0  0  0  0  0  0  0  0  0  0
    7.2284   49.2964  128.4042 C   0  0  0  0  0  0  0  0  0  0  0  0
    7.1247   50.2903  127.5352 O   0  0  0  0  0  0  0  0  0  0  0  0
    7.3403   51.4540  128.0793 C   0  0  0  0  0  0  0  0  0  0  0  0
    7.6011   51.2136  129.3828 N   0  0  0  0  0  0  0  0  0  0  0  0
    7.5383   49.8893  129.6091 C   0  0  0  0  0  0  0  0  0  0  0  0
    7.7013   49.0665  130.6853 C   0  0  0  0  0  0  0  0  0  0  0  0
    7.3165   52.7746  127.4530 C   0  0  0  0  0  0  0  0  0  0  0  0
    7.7703   53.0004  126.1752 C   0  0  0  0  0  0  0  0  0  0  0  0
    7.7311   54.2799  125.6096 C   0  0  0  0  0  0  0  0  0  0  0  0
    7.2382   55.3147  126.3313 N   0  0  0  0  0  0  0  0  0  0  0  0
    6.7896   55.1171  127.5810 C   0  0  0  0  0  0  0  0  0  0  0  0
    6.8231   53.8537  128.1530 C   0  0  0  0  0  0  0  0  0  0  0  0
    9.6281   46.8959  135.0523 C   0  0  0  0  0  0  0  0  0  0  0  0
    8.8725   46.1809  133.9480 C   0  0  0  0  0  0  0  0  0  0  0  0
    9.5802   45.0331  133.5974 O   0  0  0  0  0  0  0  0  0  0  0  0
   10.5097   44.8583  132.6220 C   0  0  0  0  0  0  0  0  0  0  0  0
   11.8071   45.2155  132.7951 C   0  0  0  0  0  0  0  0  0  0  0  0
   12.7696   45.0437  131.8085 C   0  0  0  0  0  0  0  0  0  0  0  0
   12.3867   44.4896  130.6119 C   0  0  0  0  0  0  0  0  0  0  0  0
   11.0849   44.1165  130.4004 C   0  0  0  0  0  0  0  0  0  0  0  0
   10.7184   43.5586  129.1847 C   0  0  0  0  0  0  0  0  0  0  0  0
    9.4236   43.1869  128.9731 C   0  0  0  0  0  0  0  0  0  0  0  0
    8.5062   43.3758  129.9777 C   0  0  0  0  0  0  0  0  0  0  0  0
    8.8381   43.9268  131.1954 C   0  0  0  0  0  0  0  0  0  0  0  0
   10.1588   44.2976  131.3901 C   0  0  0  0  0  0  0  0  0  0  0  0
 20 21  1  0  0  0
 21 22  1  0  0  0
 22 23  1  0  0  0
 23 24  2  0  0  0
 24 25  1  0  0  0
 25 26  2  0  0  0
 26 27  1  0  0  0
 27 28  2  0  0  0
 28 29  1  0  0  0
 29 30  2  0  0  0
 30 31  1  0  0  0
 31 32  2  0  0  0
 21  1  1  0  0  0
  1  2  2  0  0  0
  1  3  1  0  0  0
  3  5  1  0  0  0
  5  6  2  0  0  0
  6  7  1  0  0  0
  7  8  2  0  0  0
  8  9  1  0  0  0
  9 10  1  0  0  0
 10 11  2  0  0  0
 11 12  1  0  0  0
 12 13  2  0  0  0
 10 14  1  0  0  0
 14 15  2  0  0  0
 15 16  1  0  0  0
 16 17  2  0  0  0
 17 18  1  0  0  0
 18 19  2  0  0  0
 32 23  1  0  0  0
 13  5  1  0  0  0
 19 14  1  0  0  0
 32 27  1  0  0  0
 12  8  1  0  0  0
  3  4  1  0  0  0
M  END
> <minimizedAffinity>
1.37041

> <CNNscore>
0.2917556167

> <CNNaffinity>
7.2381844521

> <CNN_VS>
2.1117808819

> <CNNaffinity_variance>
0.2437811792

$$$$
[H]c1nc([H])c([H])c(-c2nc3c([H])c(N([H])C(=O)[C@@]([H])(Oc4c([H])c([H])c([H])c5c([H])c([H])c([H])c([H])c45)C([H])([H])[H])c([H])c([H])c3o2)c1[H]


 32 36  0  0  0  0  0  0  0  0999 V2000
    8.8897   47.3641  132.9185 C   0  0  0  0  0  0  0  0  0  0  0  0
    9.9159   48.0471  132.7185 O   0  0  0  0  0  0  0  0  0  0  0  0
    7.7760   47.3155  132.0606 N   0  0  0  0  0  0  0  0  0  0  0  0
    6.9549   46.6880  132.3516 H   0  0  0  0  0  0  0  0  0  0  0  0
    7.6242   48.0085  130.8441 C   0  0  0  0  0  0  0  0  0  0  0  0
    7.4923   47.4205  129.6190 C   0  0  0  0  0  0  0  0  0  0  0  0
    7.3675   48.1549  128.4555 C   0  0  0  0  0  0  0  0  0  0  0  0
    7.3738   49.5260  128.5185 C   0  0  0  0  0  0  0  0  0  0  0  0
    7.2754   50.4781  127.6033 O   0  0  0  0  0  0  0  0  0  0  0  0
    7.3304   51.6734  128.1182 C   0  0  0  0  0  0  0  0  0  0  0  0
    7.4731   51.4994  129.4502 N   0  0  0  0  0  0  0  0  0  0  0  0
    7.5028   50.1828  129.7233 C   0  0  0  0  0  0  0  0  0  0  0  0
    7.6234   49.4130  130.8434 C   0  0  0  0  0  0  0  0  0  0  0  0
    7.2571   52.9657  127.4389 C   0  0  0  0  0  0  0  0  0  0  0  0
    6.6512   54.0662  127.9969 C   0  0  0  0  0  0  0  0  0  0  0  0
    6.6012   55.2874  127.3150 C   0  0  0  0  0  0  0  0  0  0  0  0
    7.1583   55.3890  126.0846 N   0  0  0  0  0  0  0  0  0  0  0  0
    7.7552   54.3271  125.5207 C   0  0  0  0  0  0  0  0  0  0  0  0
    7.8114   53.1112  126.1862 C   0  0  0  0  0  0  0  0  0  0  0  0
    9.6684   47.2715  135.2360 C   0  0  0  0  0  0  0  0  0  0  0  0
    8.8637   46.5368  134.1805 C   0  0  0  0  0  0  0  0  0  0  0  0
    9.4750   45.3101  133.9304 O   0  0  0  0  0  0  0  0  0  0  0  0
    9.4662   44.5578  132.7990 C   0  0  0  0  0  0  0  0  0  0  0  0
    8.3828   43.8292  132.4303 C   0  0  0  0  0  0  0  0  0  0  0  0
    8.3574   43.0552  131.2773 C   0  0  0  0  0  0  0  0  0  0  0  0
    9.4768   43.0305  130.4824 C   0  0  0  0  0  0  0  0  0  0  0  0
   10.5904   43.7537  130.8225 C   0  0  0  0  0  0  0  0  0  0  0  0
   11.7110   43.7152  130.0063 C   0  0  0  0  0  0  0  0  0  0  0  0
   12.8194   44.4344  130.3435 C   0  0  0  0  0  0  0  0  0  0  0  0
   12.7987   45.1855  131.4933 C   0  0  0  0  0  0  0  0  0  0  0  0
   11.7024   45.2447  132.3246 C   0  0  0  0  0  0  0  0  0  0  0  0
   10.5866   44.5068  131.9639 C   0  0  0  0  0  0  0  0  0  0  0  0
 20 21  1  0  0  0
 21 22  1  0  0  0
 22 23  1  0  0  0
 23 24  2  0  0  0
 24 25  1  0  0  0
 25 26  2  0  0  0
 26 27  1  0  0  0
 27 28  2  0  0  0
 28 29  1  0  0  0
 29 30  2  0  0  0
 30 31  1  0  0  0
 31 32  2  0  0  0
 21  1  1  0  0  0
  1  2  2  0  0  0
  1  3  1  0  0  0
  3  5  1  0  0  0
  5  6  2  0  0  0
  6  7  1  0  0  0
  7  8  2  0  0  0
  8  9  1  0  0  0
  9 10  1  0  0  0
 10 11  2  0  0  0
 11 12  1  0  0  0
 12 13  2  0  0  0
 10 14  1  0  0  0
 14 15  2  0  0  0
 15 16  1  0  0  0
 16 17  2  0  0  0
 17 18  1  0  0  0
 18 19  2  0  0  0
 32 23  1  0  0  0
 13  5  1  0  0  0
 19 14  1  0  0  0
 32 27  1  0  0  0
 12  8  1  0  0  0
  3  4  1  0  0  0
M  END
> <minimizedAffinity>
1.61059

> <CNNscore>
0.2878479958

> <CNNaffinity>
7.0620131493

> <CNN_VS>
2.0327863693

> <CNNaffinity_variance>
0.1504110694

$$$$
[H]c1nc(OC([H])([H])c2c(-c3c([H])c([H])c([H])c([H])c3[H])noc2C([H])([H])[H])c([H])c([H])c1C(=O)N([H])C([H])([H])[H]


 25 27  0  0  0  0  0  0  0  0999 V2000
   10.9927   45.0218  129.8936 C   0  0  0  0  0  0  0  0  0  0  0  0
    9.9559   44.0141  130.2856 C   0  0  0  0  0  0  0  0  0  0  0  0
    9.3585   43.1467  129.3524 C   0  0  0  0  0  0  0  0  0  0  0  0
    9.7642   42.9922  127.9566 C   0  0  0  0  0  0  0  0  0  0  0  0
    8.3947   42.5254  130.0041 O   0  0  0  0  0  0  0  0  0  0  0  0
    8.3141   42.8930  131.2198 N   0  0  0  0  0  0  0  0  0  0  0  0
    9.3005   43.8630  131.4640 C   0  0  0  0  0  0  0  0  0  0  0  0
    9.3442   44.4867  132.7616 C   0  0  0  0  0  0  0  0  0  0  0  0
    8.3568   45.4140  133.1160 C   0  0  0  0  0  0  0  0  0  0  0  0
    8.4213   46.1522  134.2518 C   0  0  0  0  0  0  0  0  0  0  0  0
    9.5226   45.9493  135.0782 C   0  0  0  0  0  0  0  0  0  0  0  0
   10.5001   45.0447  134.7542 C   0  0  0  0  0  0  0  0  0  0  0  0
   10.4167   44.3132  133.5977 C   0  0  0  0  0  0  0  0  0  0  0  0
   10.7806   46.2107  130.5560 O   0  0  0  0  0  0  0  0  0  0  0  0
    7.9935   49.2274  129.7697 C   0  0  0  0  0  0  0  0  0  0  0  0
    9.0707   49.4571  130.6040 C   0  0  0  0  0  0  0  0  0  0  0  0
    9.9483   48.4375  130.8227 C   0  0  0  0  0  0  0  0  0  0  0  0
    9.8420   47.1544  130.2477 C   0  0  0  0  0  0  0  0  0  0  0  0
    8.7734   47.0051  129.4453 N   0  0  0  0  0  0  0  0  0  0  0  0
    7.8737   47.9749  129.2013 C   0  0  0  0  0  0  0  0  0  0  0  0
    6.6433   52.4867  128.2774 C   0  0  0  0  0  0  0  0  0  0  0  0
    7.4197   51.3173  128.5912 N   0  0  0  0  0  0  0  0  0  0  0  0
    7.0661   50.3440  129.5535 C   0  0  0  0  0  0  0  0  0  0  0  0
    5.9937   50.5011  130.1676 O   0  0  0  0  0  0  0  0  0  0  0  0
    8.3393   51.1957  128.0451 H   0  0  0  0  0  0  0  0  0  0  0  0
 21 22  1  0  0  0
 22 23  1  0  0  0
 23 24  2  0  0  0
 23 15  1  0  0  0
 15 16  2  0  0  0
 16 17  1  0  0  0
 17 18  2  0  0  0
 18 14  1  0  0  0
 14  1  1  0  0  0
  1  2  1  0  0  0
  2  3  2  0  0  0
  3  4  1  0  0  0
  3  5  1  0  0  0
  5  6  1  0  0  0
  6  7  2  0  0  0
  7  8  1  0  0  0
  8  9  2  0  0  0
  9 10  1  0  0  0
 10 11  2  0  0  0
 11 12  1  0  0  0
 12 13  2  0  0  0
 18 19  1  0  0  0
 19 20  2  0  0  0
 20 15  1  0  0  0
  7  2  1  0  0  0
 13  8  1  0  0  0
 22 25  1  0  0  0
M  END
> <minimizedAffinity>
-7.26912

> <CNNscore>
0.6602572799

> <CNNaffinity>
7.3821153641

> <CNN_VS>
4.8740954399

> <CNNaffinity_variance>
0.2674663365

$$$$
[H]c1nc(OC([H])([H])c2c(-c3c([H])c([H])c([H])c([H])c3[H])noc2C([H])([H])[H])c([H])c([H])c1C(=O)N([H])C([H])([H])[H]


 25 27  0  0  0  0  0  0  0  0999 V2000
    8.9154   44.1511  130.3015 C   0  0  0  0  0  0  0  0  0  0  0  0
   10.3415   44.5816  130.4594 C   0  0  0  0  0  0  0  0  0  0  0  0
   11.3361   44.2505  129.5207 C   0  0  0  0  0  0  0  0  0  0  0  0
   11.1030   43.6113  128.2269 C   0  0  0  0  0  0  0  0  0  0  0  0
   12.4777   44.6426  130.0523 O   0  0  0  0  0  0  0  0  0  0  0  0
   12.3235   45.1736  131.1986 N   0  0  0  0  0  0  0  0  0  0  0  0
   10.9564   45.1600  131.5217 C   0  0  0  0  0  0  0  0  0  0  0  0
   10.5522   45.6394  132.8184 C   0  0  0  0  0  0  0  0  0  0  0  0
   10.8796   44.8999  133.9613 C   0  0  0  0  0  0  0  0  0  0  0  0
   10.4007   45.2067  135.1924 C   0  0  0  0  0  0  0  0  0  0  0  0
    9.5589   46.3108  135.2883 C   0  0  0  0  0  0  0  0  0  0  0  0
    9.2269   47.0522  134.1842 C   0  0  0  0  0  0  0  0  0  0  0  0
    9.7188   46.7202  132.9484 C   0  0  0  0  0  0  0  0  0  0  0  0
    8.2896   44.9092  129.3367 O   0  0  0  0  0  0  0  0  0  0  0  0
    7.3074   48.9717  129.4709 C   0  0  0  0  0  0  0  0  0  0  0  0
    6.3223   48.0063  129.3873 C   0  0  0  0  0  0  0  0  0  0  0  0
    6.7010   46.6976  129.3486 C   0  0  0  0  0  0  0  0  0  0  0  0
    8.0374   46.2506  129.3967 C   0  0  0  0  0  0  0  0  0  0  0  0
    8.9400   47.2436  129.4816 N   0  0  0  0  0  0  0  0  0  0  0  0
    8.6212   48.5500  129.5156 C   0  0  0  0  0  0  0  0  0  0  0  0
    6.9433   52.6144  128.3434 C   0  0  0  0  0  0  0  0  0  0  0  0
    7.2598   51.2151  128.4459 N   0  0  0  0  0  0  0  0  0  0  0  0
    6.8689   50.3716  129.5108 C   0  0  0  0  0  0  0  0  0  0  0  0
    6.1857   50.8725  130.4241 O   0  0  0  0  0  0  0  0  0  0  0  0
    7.8448   50.7993  127.6436 H   0  0  0  0  0  0  0  0  0  0  0  0
 21 22  1  0  0  0
 22 23  1  0  0  0
 23 24  2  0  0  0
 23 15  1  0  0  0
 15 16  2  0  0  0
 16 17  1  0  0  0
 17 18  2  0  0  0
 18 14  1  0  0  0
 14  1  1  0  0  0
  1  2  1  0  0  0
  2  3  2  0  0  0
  3  4  1  0  0  0
  3  5  1  0  0  0
  5  6  1  0  0  0
  6  7  2  0  0  0
  7  8  1  0  0  0
  8  9  2  0  0  0
  9 10  1  0  0  0
 10 11  2  0  0  0
 11 12  1  0  0  0
 12 13  2  0  0  0
 18 19  1  0  0  0
 19 20  2  0  0  0
 20 15  1  0  0  0
  7  2  1  0  0  0
 13  8  1  0  0  0
 22 25  1  0  0  0
M  END
> <minimizedAffinity>
-6.88002

> <CNNscore>
0.6134966612

> <CNNaffinity>
7.1613297462

> <CNN_VS>
4.3934516907

> <CNNaffinity_variance>
0.3344101012

$$$$
[H]c1nc(OC([H])([H])c2c(-c3c([H])c([H])c([H])c([H])c3[H])noc2C([H])([H])[H])c([H])c([H])c1C(=O)N([H])C([H])([H])[H]


 25 27  0  0  0  0  0  0  0  0999 V2000
   10.2409   45.7086  132.0070 C   0  0  0  0  0  0  0  0  0  0  0  0
    9.3541   44.5363  131.7188 C   0  0  0  0  0  0  0  0  0  0  0  0
    8.5886   43.9077  132.7183 C   0  0  0  0  0  0  0  0  0  0  0  0
    8.4231   44.3886  134.0888 C   0  0  0  0  0  0  0  0  0  0  0  0
    8.0699   42.8348  132.1531 O   0  0  0  0  0  0  0  0  0  0  0  0
    8.4128   42.7135  130.9335 N   0  0  0  0  0  0  0  0  0  0  0  0
    9.2517   43.7874  130.5920 C   0  0  0  0  0  0  0  0  0  0  0  0
    9.8318   43.8135  129.2739 C   0  0  0  0  0  0  0  0  0  0  0  0
   10.7040   44.8512  128.9233 C   0  0  0  0  0  0  0  0  0  0  0  0
   11.1620   45.0254  127.6588 C   0  0  0  0  0  0  0  0  0  0  0  0
   10.7335   44.1141  126.6982 C   0  0  0  0  0  0  0  0  0  0  0  0
    9.8827   43.0880  127.0180 C   0  0  0  0  0  0  0  0  0  0  0  0
    9.4282   42.9346  128.3023 C   0  0  0  0  0  0  0  0  0  0  0  0
    9.9363   46.2497  133.2365 O   0  0  0  0  0  0  0  0  0  0  0  0
   12.7141   48.1037  135.7531 C   0  0  0  0  0  0  0  0  0  0  0  0
   13.0665   47.0017  134.9976 C   0  0  0  0  0  0  0  0  0  0  0  0
   12.1204   46.4395  134.1936 C   0  0  0  0  0  0  0  0  0  0  0  0
   10.7969   46.9092  134.0678 C   0  0  0  0  0  0  0  0  0  0  0  0
   10.5273   47.9850  134.8280 N   0  0  0  0  0  0  0  0  0  0  0  0
   11.4207   48.5738  135.6434 C   0  0  0  0  0  0  0  0  0  0  0  0
   15.9878   48.3038  137.7320 C   0  0  0  0  0  0  0  0  0  0  0  0
   14.8936   47.8994  136.8907 N   0  0  0  0  0  0  0  0  0  0  0  0
   13.7540   48.6869  136.6089 C   0  0  0  0  0  0  0  0  0  0  0  0
   13.6974   49.8238  137.1147 O   0  0  0  0  0  0  0  0  0  0  0  0
   14.9642   46.9166  136.4573 H   0  0  0  0  0  0  0  0  0  0  0  0
 21 22  1  0  0  0
 22 23  1  0  0  0
 23 24  2  0  0  0
 23 15  1  0  0  0
 15 16  2  0  0  0
 16 17  1  0  0  0
 17 18  2  0  0  0
 18 14  1  0  0  0
 14  1  1  0  0  0
  1  2  1  0  0  0
  2  3  2  0  0  0
  3  4  1  0  0  0
  3  5  1  0  0  0
  5  6  1  0  0  0
  6  7  2  0  0  0
  7  8  1  0  0  0
  8  9  2  0  0  0
  9 10  1  0  0  0
 10 11  2  0  0  0
 11 12  1  0  0  0
 12 13  2  0  0  0
 18 19  1  0  0  0
 19 20  2  0  0  0
 20 15  1  0  0  0
  7  2  1  0  0  0
 13  8  1  0  0  0
 22 25  1  0  0  0
M  END
> <minimizedAffinity>
14.59997

> <CNNscore>
0.5427207947

> <CNNaffinity>
6.5218811035

> <CNN_VS>
3.5395605564

> <CNNaffinity_variance>
1.6630065441

$$$$
[H]c1nc(OC([H])([H])c2c(-c3c([H])c([H])c([H])c([H])c3[H])noc2C([H])([H])[H])c([H])c([H])c1C(=O)N([H])C([H])([H])[H]


 25 27  0  0  0  0  0  0  0  0999 V2000
    9.2836   43.1846  133.2494 C   0  0  0  0  0  0  0  0  0  0  0  0
   10.6913   43.6184  132.9773 C   0  0  0  0  0  0  0  0  0  0  0  0
   11.6065   43.8955  134.0097 C   0  0  0  0  0  0  0  0  0  0  0  0
   11.3805   43.6496  135.4328 C   0  0  0  0  0  0  0  0  0  0  0  0
   12.6735   44.3983  133.4195 O   0  0  0  0  0  0  0  0  0  0  0  0
   12.5417   44.4707  132.1557 N   0  0  0  0  0  0  0  0  0  0  0  0
   11.2718   43.9821  131.8061 C   0  0  0  0  0  0  0  0  0  0  0  0
   10.8682   44.0446  130.4248 C   0  0  0  0  0  0  0  0  0  0  0  0
    9.9345   43.1232  129.9355 C   0  0  0  0  0  0  0  0  0  0  0  0
    9.6271   43.0234  128.6184 C   0  0  0  0  0  0  0  0  0  0  0  0
   10.2791   43.8914  127.7476 C   0  0  0  0  0  0  0  0  0  0  0  0
   11.1945   44.8042  128.2034 C   0  0  0  0  0  0  0  0  0  0  0  0
   11.4935   44.8836  129.5390 C   0  0  0  0  0  0  0  0  0  0  0  0
    8.4843   44.2784  133.4986 O   0  0  0  0  0  0  0  0  0  0  0  0
    8.3753   47.9000  131.4109 C   0  0  0  0  0  0  0  0  0  0  0  0
    8.9613   47.8187  132.6596 C   0  0  0  0  0  0  0  0  0  0  0  0
    8.9695   46.6117  133.2928 C   0  0  0  0  0  0  0  0  0  0  0  0
    8.4259   45.4254  132.7586 C   0  0  0  0  0  0  0  0  0  0  0  0
    7.8771   45.5790  131.5408 N   0  0  0  0  0  0  0  0  0  0  0  0
    7.8357   46.7475  130.8756 C   0  0  0  0  0  0  0  0  0  0  0  0
    7.2040   50.7245  129.1037 C   0  0  0  0  0  0  0  0  0  0  0  0
    7.3332   49.5031  129.8522 N   0  0  0  0  0  0  0  0  0  0  0  0
    8.3820   49.2124  130.7542 C   0  0  0  0  0  0  0  0  0  0  0  0
    9.2543   50.0847  130.9270 O   0  0  0  0  0  0  0  0  0  0  0  0
    6.5659   48.7647  129.6945 H   0  0  0  0  0  0  0  0  0  0  0  0
 21 22  1  0  0  0
 22 23  1  0  0  0
 23 24  2  0  0  0
 23 15  1  0  0  0
 15 16  2  0  0  0
 16 17  1  0  0  0
 17 18  2  0  0  0
 18 14  1  0  0  0
 14  1  1  0  0  0
  1  2  1  0  0  0
  2  3  2  0  0  0
  3  4  1  0  0  0
  3  5  1  0  0  0
  5  6  1  0  0  0
  6  7  2  0  0  0
  7  8  1  0  0  0
  8  9  2  0  0  0
  9 10  1  0  0  0
 10 11  2  0  0  0
 11 12  1  0  0  0
 12 13  2  0  0  0
 18 19  1  0  0  0
 19 20  2  0  0  0
 20 15  1  0  0  0
  7  2  1  0  0  0
 13  8  1  0  0  0
 22 25  1  0  0  0
M  END
> <minimizedAffinity>
-8.01456

> <CNNscore>
0.5022640228

> <CNNaffinity>
7.1292409897

> <CNN_VS>
3.5807611942

> <CNNaffinity_variance>
0.0548272133

$$$$
[H]c1nc(OC([H])([H])c2c(-c3c([H])c([H])c([H])c([H])c3[H])noc2C([H])([H])[H])c([H])c([H])c1C(=O)N([H])C([H])([H])[H]


 25 27  0  0  0  0  0  0  0  0999 V2000
    8.3032   44.2565  131.8081 C   0  0  0  0  0  0  0  0  0  0  0  0
    9.4338   44.9414  132.5125 C   0  0  0  0  0  0  0  0  0  0  0  0
    9.2518   45.6549  133.7117 C   0  0  0  0  0  0  0  0  0  0  0  0
    8.0213   45.6898  134.5000 C   0  0  0  0  0  0  0  0  0  0  0  0
   10.4028   46.2519  133.9536 O   0  0  0  0  0  0  0  0  0  0  0  0
   11.2764   46.0036  133.0621 N   0  0  0  0  0  0  0  0  0  0  0  0
   10.7062   45.1595  132.0947 C   0  0  0  0  0  0  0  0  0  0  0  0
   11.4917   44.8103  130.9389 C   0  0  0  0  0  0  0  0  0  0  0  0
   12.8365   44.4553  131.0992 C   0  0  0  0  0  0  0  0  0  0  0  0
   13.6732   44.2675  130.0486 C   0  0  0  0  0  0  0  0  0  0  0  0
   13.1388   44.4356  128.7746 C   0  0  0  0  0  0  0  0  0  0  0  0
   11.8244   44.7795  128.5924 C   0  0  0  0  0  0  0  0  0  0  0  0
   10.9982   44.9695  129.6698 C   0  0  0  0  0  0  0  0  0  0  0  0
    8.0856   44.8334  130.5764 O   0  0  0  0  0  0  0  0  0  0  0  0
    6.9155   48.8004  129.9599 C   0  0  0  0  0  0  0  0  0  0  0  0
    8.1907   48.4970  130.3969 C   0  0  0  0  0  0  0  0  0  0  0  0
    8.5172   47.1863  130.5788 C   0  0  0  0  0  0  0  0  0  0  0  0
    7.6434   46.1049  130.3434 C   0  0  0  0  0  0  0  0  0  0  0  0
    6.4232   46.4750  129.9167 N   0  0  0  0  0  0  0  0  0  0  0  0
    6.0470   47.7526  129.7278 C   0  0  0  0  0  0  0  0  0  0  0  0
    7.0307   52.2935  128.3919 C   0  0  0  0  0  0  0  0  0  0  0  0
    7.2109   50.8998  128.6985 N   0  0  0  0  0  0  0  0  0  0  0  0
    6.5936   50.2201  129.7733 C   0  0  0  0  0  0  0  0  0  0  0  0
    5.8231   50.8719  130.5034 O   0  0  0  0  0  0  0  0  0  0  0  0
    7.8748   50.3521  128.0520 H   0  0  0  0  0  0  0  0  0  0  0  0
 21 22  1  0  0  0
 22 23  1  0  0  0
 23 24  2  0  0  0
 23 15  1  0  0  0
 15 16  2  0  0  0
 16 17  1  0  0  0
 17 18  2  0  0  0
 18 14  1  0  0  0
 14  1  1  0  0  0
  1  2  1  0  0  0
  2  3  2  0  0  0
  3  4  1  0  0  0
  3  5  1  0  0  0
  5  6  1  0  0  0
  6  7  2  0  0  0
  7  8  1  0  0  0
  8  9  2  0  0  0
  9 10  1  0  0  0
 10 11  2  0  0  0
 11 12  1  0  0  0
 12 13  2  0  0  0
 18 19  1  0  0  0
 19 20  2  0  0  0
 20 15  1  0  0  0
  7  2  1  0  0  0
 13  8  1  0  0  0
 22 25  1  0  0  0
M  END
> <minimizedAffinity>
-6.10298

> <CNNscore>
0.4669229090

> <CNNaffinity>
6.9740533829

> <CNN_VS>
3.2563452721

> <CNNaffinity_variance>
0.2930665910

$$$$
[H]c1nc(OC([H])([H])c2c(-c3c([H])c([H])c([H])c([H])c3[H])noc2C([H])([H])[H])c([H])c([H])c1C(=O)N([H])C([H])([H])[H]


 25 27  0  0  0  0  0  0  0  0999 V2000
    9.2738   42.4930  129.0802 C   0  0  0  0  0  0  0  0  0  0  0  0
    9.3736   43.9783  128.9136 C   0  0  0  0  0  0  0  0  0  0  0  0
    9.1682   44.6123  127.6743 C   0  0  0  0  0  0  0  0  0  0  0  0
    8.6833   43.9619  126.4583 C   0  0  0  0  0  0  0  0  0  0  0  0
    9.4919   45.8775  127.8591 O   0  0  0  0  0  0  0  0  0  0  0  0
    9.8722   46.1132  129.0506 N   0  0  0  0  0  0  0  0  0  0  0  0
    9.8214   44.9169  129.7852 C   0  0  0  0  0  0  0  0  0  0  0  0
   10.2891   44.9270  131.1475 C   0  0  0  0  0  0  0  0  0  0  0  0
   11.6085   45.3064  131.4222 C   0  0  0  0  0  0  0  0  0  0  0  0
   12.1608   45.1906  132.6553 C   0  0  0  0  0  0  0  0  0  0  0  0
   11.3535   44.6769  133.6659 C   0  0  0  0  0  0  0  0  0  0  0  0
   10.0578   44.3018  133.4220 C   0  0  0  0  0  0  0  0  0  0  0  0
    9.5221   44.4230  132.1659 C   0  0  0  0  0  0  0  0  0  0  0  0
    9.2565   41.8725  127.8506 O   0  0  0  0  0  0  0  0  0  0  0  0
   12.2644   39.4352  126.2699 C   0  0  0  0  0  0  0  0  0  0  0  0
   12.4133   40.8082  126.3121 C   0  0  0  0  0  0  0  0  0  0  0  0
   11.4010   41.5526  126.8400 C   0  0  0  0  0  0  0  0  0  0  0  0
   10.2038   41.0190  127.3598 C   0  0  0  0  0  0  0  0  0  0  0  0
   10.1305   39.6783  127.2894 N   0  0  0  0  0  0  0  0  0  0  0  0
   11.0962   38.8976  126.7721 C   0  0  0  0  0  0  0  0  0  0  0  0
   14.6727   38.1267  123.5939 C   0  0  0  0  0  0  0  0  0  0  0  0
   13.6477   38.8275  124.3198 N   0  0  0  0  0  0  0  0  0  0  0  0
   13.3710   38.6607  125.6959 C   0  0  0  0  0  0  0  0  0  0  0  0
   14.0767   37.8568  126.3342 O   0  0  0  0  0  0  0  0  0  0  0  0
   13.0533   39.5229  123.7524 H   0  0  0  0  0  0  0  0  0  0  0  0
 21 22  1  0  0  0
 22 23  1  0  0  0
 23 24  2  0  0  0
 23 15  1  0  0  0
 15 16  2  0  0  0
 16 17  1  0  0  0
 17 18  2  0  0  0
 18 14  1  0  0  0
 14  1  1  0  0  0
  1  2  1  0  0  0
  2  3  2  0  0  0
  3  4  1  0  0  0
  3  5  1  0  0  0
  5  6  1  0  0  0
  6  7  2  0  0  0
  7  8  1  0  0  0
  8  9  2  0  0  0
  9 10  1  0  0  0
 10 11  2  0  0  0
 11 12  1  0  0  0
 12 13  2  0  0  0
 18 19  1  0  0  0
 19 20  2  0  0  0
 20 15  1  0  0  0
  7  2  1  0  0  0
 13  8  1  0  0  0
 22 25  1  0  0  0
M  END
> <minimizedAffinity>
32.81710

> <CNNscore>
0.4410654604

> <CNNaffinity>
5.9110312462

> <CNN_VS>
2.6071517467

> <CNNaffinity_variance>
0.5207906365

$$$$
[H]c1nc(OC([H])([H])c2c(-c3c([H])c([H])c([H])c([H])c3[H])noc2C([H])([H])[H])c([H])c([H])c1C(=O)N([H])C([H])([H])[H]


 25 27  0  0  0  0  0  0  0  0999 V2000
   11.3020   46.3602  132.7506 C   0  0  0  0  0  0  0  0  0  0  0  0
   10.0651   45.5164  132.7958 C   0  0  0  0  0  0  0  0  0  0  0  0
    9.2858   45.3848  133.9600 C   0  0  0  0  0  0  0  0  0  0  0  0
    9.4652   46.1502  135.1924 C   0  0  0  0  0  0  0  0  0  0  0  0
    8.3885   44.4567  133.6895 O   0  0  0  0  0  0  0  0  0  0  0  0
    8.5079   43.9937  132.5101 N   0  0  0  0  0  0  0  0  0  0  0  0
    9.5837   44.6400  131.8787 C   0  0  0  0  0  0  0  0  0  0  0  0
    9.9587   44.2151  130.5545 C   0  0  0  0  0  0  0  0  0  0  0  0
   11.2611   44.4487  130.0969 C   0  0  0  0  0  0  0  0  0  0  0  0
   11.6376   44.2186  128.8145 C   0  0  0  0  0  0  0  0  0  0  0  0
   10.6674   43.7241  127.9479 C   0  0  0  0  0  0  0  0  0  0  0  0
    9.3867   43.4842  128.3736 C   0  0  0  0  0  0  0  0  0  0  0  0
    9.0272   43.7293  129.6736 C   0  0  0  0  0  0  0  0  0  0  0  0
   11.2456   47.2377  131.6904 O   0  0  0  0  0  0  0  0  0  0  0  0
    7.9405   49.4097  130.3321 C   0  0  0  0  0  0  0  0  0  0  0  0
    8.4197   48.3277  129.6188 C   0  0  0  0  0  0  0  0  0  0  0  0
    9.4989   47.6558  130.1104 C   0  0  0  0  0  0  0  0  0  0  0  0
   10.1645   47.9813  131.3101 C   0  0  0  0  0  0  0  0  0  0  0  0
    9.6415   49.0409  131.9516 N   0  0  0  0  0  0  0  0  0  0  0  0
    8.5835   49.7431  131.5075 C   0  0  0  0  0  0  0  0  0  0  0  0
    4.3682   49.8984  129.0388 C   0  0  0  0  0  0  0  0  0  0  0  0
    5.5864   49.3743  129.5957 N   0  0  0  0  0  0  0  0  0  0  0  0
    6.7777   50.1130  129.7779 C   0  0  0  0  0  0  0  0  0  0  0  0
    6.7703   51.3134  129.4452 O   0  0  0  0  0  0  0  0  0  0  0  0
    5.5707   48.3371  129.8835 H   0  0  0  0  0  0  0  0  0  0  0  0
 21 22  1  0  0  0
 22 23  1  0  0  0
 23 24  2  0  0  0
 23 15  1  0  0  0
 15 16  2  0  0  0
 16 17  1  0  0  0
 17 18  2  0  0  0
 18 14  1  0  0  0
 14  1  1  0  0  0
  1  2  1  0  0  0
  2  3  2  0  0  0
  3  4  1  0  0  0
  3  5  1  0  0  0
  5  6  1  0  0  0
  6  7  2  0  0  0
  7  8  1  0  0  0
  8  9  2  0  0  0
  9 10  1  0  0  0
 10 11  2  0  0  0
 11 12  1  0  0  0
 12 13  2  0  0  0
 18 19  1  0  0  0
 19 20  2  0  0  0
 20 15  1  0  0  0
  7  2  1  0  0  0
 13  8  1  0  0  0
 22 25  1  0  0  0
M  END
> <minimizedAffinity>
-6.49756

> <CNNscore>
0.4364032745

> <CNNaffinity>
6.9374504089

> <CNN_VS>
3.0275261402

> <CNNaffinity_variance>
0.0355005898

$$$$
[H]c1nc(OC([H])([H])c2c(-c3c([H])c([H])c([H])c([H])c3[H])noc2C([H])([H])[H])c([H])c([H])c1C(=O)N([H])C([H])([H])[H]


 25 27  0  0  0  0  0  0  0  0999 V2000
    9.1938   49.4782  130.6181 C   0  0  0  0  0  0  0  0  0  0  0  0
    8.0537   48.8656  129.8639 C   0  0  0  0  0  0  0  0  0  0  0  0
    6.8146   49.5154  129.7140 C   0  0  0  0  0  0  0  0  0  0  0  0
    6.5252   50.8927  130.1093 C   0  0  0  0  0  0  0  0  0  0  0  0
    6.0118   48.6340  129.1497 O   0  0  0  0  0  0  0  0  0  0  0  0
    6.5890   47.5214  128.9295 N   0  0  0  0  0  0  0  0  0  0  0  0
    7.9184   47.6069  129.3756 C   0  0  0  0  0  0  0  0  0  0  0  0
    8.7447   46.4294  129.3020 C   0  0  0  0  0  0  0  0  0  0  0  0
    9.9978   46.5024  128.6816 C   0  0  0  0  0  0  0  0  0  0  0  0
   10.7580   45.4060  128.4385 C   0  0  0  0  0  0  0  0  0  0  0  0
   10.2447   44.1766  128.8410 C   0  0  0  0  0  0  0  0  0  0  0  0
    9.0221   44.0803  129.4532 C   0  0  0  0  0  0  0  0  0  0  0  0
    8.2684   45.2020  129.6841 C   0  0  0  0  0  0  0  0  0  0  0  0
    9.2356   48.9889  131.9050 O   0  0  0  0  0  0  0  0  0  0  0  0
   10.3668   45.0921  132.9157 C   0  0  0  0  0  0  0  0  0  0  0  0
   11.2244   45.9210  132.2182 C   0  0  0  0  0  0  0  0  0  0  0  0
   10.8031   47.1819  131.9176 C   0  0  0  0  0  0  0  0  0  0  0  0
    9.5467   47.7117  132.2771 C   0  0  0  0  0  0  0  0  0  0  0  0
    8.7681   46.8512  132.9563 N   0  0  0  0  0  0  0  0  0  0  0  0
    9.1315   45.5952  133.2722 C   0  0  0  0  0  0  0  0  0  0  0  0
   11.3170   41.4322  132.3026 C   0  0  0  0  0  0  0  0  0  0  0  0
   10.9005   42.8024  132.1686 N   0  0  0  0  0  0  0  0  0  0  0  0
   10.8483   43.7406  133.2246 C   0  0  0  0  0  0  0  0  0  0  0  0
   11.2034   43.3582  134.3558 O   0  0  0  0  0  0  0  0  0  0  0  0
   10.6043   43.1156  131.1822 H   0  0  0  0  0  0  0  0  0  0  0  0
 21 22  1  0  0  0
 22 23  1  0  0  0
 23 24  2  0  0  0
 23 15  1  0  0  0
 15 16  2  0  0  0
 16 17  1  0  0  0
 17 18  2  0  0  0
 18 14  1  0  0  0
 14  1  1  0  0  0
  1  2  1  0  0  0
  2  3  2  0  0  0
  3  4  1  0  0  0
  3  5  1  0  0  0
  5  6  1  0  0  0
  6  7  2  0  0  0
  7  8  1  0  0  0
  8  9  2  0  0  0
  9 10  1  0  0  0
 10 11  2  0  0  0
 11 12  1  0  0  0
 12 13  2  0  0  0
 18 19  1  0  0  0
 19 20  2  0  0  0
 20 15  1  0  0  0
  7  2  1  0  0  0
 13  8  1  0  0  0
 22 25  1  0  0  0
M  END
> <minimizedAffinity>
-7.26226

> <CNNscore>
0.4319460392

> <CNNaffinity>
6.9973268509

> <CNN_VS>
3.0224676132

> <CNNaffinity_variance>
0.1294920146

$$$$
[H]c1nc(OC([H])([H])c2c(-c3c([H])c([H])c([H])c([H])c3[H])noc2C([H])([H])[H])c([H])c([H])c1C(=O)N([H])C([H])([H])[H]


 25 27  0  0  0  0  0  0  0  0999 V2000
   11.6404   46.3736  130.3094 C   0  0  0  0  0  0  0  0  0  0  0  0
   10.2486   45.9993  129.9012 C   0  0  0  0  0  0  0  0  0  0  0  0
    9.3292   46.9434  129.4076 C   0  0  0  0  0  0  0  0  0  0  0  0
    9.6358   48.3337  129.0765 C   0  0  0  0  0  0  0  0  0  0  0  0
    8.1781   46.3072  129.3086 O   0  0  0  0  0  0  0  0  0  0  0  0
    8.2610   45.0916  129.6763 N   0  0  0  0  0  0  0  0  0  0  0  0
    9.5819   44.8307  130.0771 C   0  0  0  0  0  0  0  0  0  0  0  0
    9.8927   43.5308  130.6141 C   0  0  0  0  0  0  0  0  0  0  0  0
   10.9408   43.3952  131.5325 C   0  0  0  0  0  0  0  0  0  0  0  0
   11.3883   42.1878  131.9579 C   0  0  0  0  0  0  0  0  0  0  0  0
   10.7533   41.0601  131.4464 C   0  0  0  0  0  0  0  0  0  0  0  0
    9.7228   41.1676  130.5489 C   0  0  0  0  0  0  0  0  0  0  0  0
    9.2904   42.3989  130.1288 C   0  0  0  0  0  0  0  0  0  0  0  0
   11.8273   46.1334  131.6528 O   0  0  0  0  0  0  0  0  0  0  0  0
    9.1975   47.3869  134.6527 C   0  0  0  0  0  0  0  0  0  0  0  0
    9.3703   48.1343  133.5034 C   0  0  0  0  0  0  0  0  0  0  0  0
   10.2391   47.6760  132.5585 C   0  0  0  0  0  0  0  0  0  0  0  0
   10.9763   46.4786  132.6643 C   0  0  0  0  0  0  0  0  0  0  0  0
   10.7548   45.8029  133.8054 N   0  0  0  0  0  0  0  0  0  0  0  0
    9.9147   46.2134  134.7726 C   0  0  0  0  0  0  0  0  0  0  0  0
    8.0144   49.0153  137.9118 C   0  0  0  0  0  0  0  0  0  0  0  0
    8.7919   48.4873  136.8230 N   0  0  0  0  0  0  0  0  0  0  0  0
    8.2557   47.9058  135.6514 C   0  0  0  0  0  0  0  0  0  0  0  0
    7.0155   47.8591  135.5447 O   0  0  0  0  0  0  0  0  0  0  0  0
    9.8615   48.5432  136.9309 H   0  0  0  0  0  0  0  0  0  0  0  0
 21 22  1  0  0  0
 22 23  1  0  0  0
 23 24  2  0  0  0
 23 15  1  0  0  0
 15 16  2  0  0  0
 16 17  1  0  0  0
 17 18  2  0  0  0
 18 14  1  0  0  0
 14  1  1  0  0  0
  1  2  1  0  0  0
  2  3  2  0  0  0
  3  4  1  0  0  0
  3  5  1  0  0  0
  5  6  1  0  0  0
  6  7  2  0  0  0
  7  8  1  0  0  0
  8  9  2  0  0  0
  9 10  1  0  0  0
 10 11  2  0  0  0
 11 12  1  0  0  0
 12 13  2  0  0  0
 18 19  1  0  0  0
 19 20  2  0  0  0
 20 15  1  0  0  0
  7  2  1  0  0  0
 13  8  1  0  0  0
 22 25  1  0  0  0
M  END
> <minimizedAffinity>
10.31457

> <CNNscore>
0.4253039062

> <CNNaffinity>
6.8453421593

> <CNN_VS>
2.9113507271

> <CNNaffinity_variance>
1.3989311457

$$$$
[H]c1nc(N([H])c2c([H])c(OC([H])([H])[H])c([H])c(OC([H])([H])[H])c2[H])nc(Oc2c([H])c([H])c(N([H])C(=O)N([H])c3c([H])c(C(C([H])([H])[H])(C([H])([H])[H])C([H])([H])[H])nn3-c3c([H])c([H])c(C([H])([H])[H])c([H])c3[H])c3c([H])c([H])c([H])c([H])c23)c1[H]


 51 56  0  0  0  0  0  0  0  0999 V2000
    7.4850   47.7493  130.4435 C   0  0  0  0  0  0  0  0  0  0  0  0
    6.8423   47.6847  129.1975 C   0  0  0  0  0  0  0  0  0  0  0  0
    6.8299   48.8001  128.3970 C   0  0  0  0  0  0  0  0  0  0  0  0
    7.4206   50.0113  128.7417 C   0  0  0  0  0  0  0  0  0  0  0  0
    8.0475   50.0400  129.9720 C   0  0  0  0  0  0  0  0  0  0  0  0
    8.6917   51.2181  130.3880 C   0  0  0  0  0  0  0  0  0  0  0  0
    9.3404   51.2925  131.5856 C   0  0  0  0  0  0  0  0  0  0  0  0
    9.3820   50.1994  132.4261 C   0  0  0  0  0  0  0  0  0  0  0  0
    8.7564   49.0315  132.0385 C   0  0  0  0  0  0  0  0  0  0  0  0
    8.0929   48.9658  130.8090 C   0  0  0  0  0  0  0  0  0  0  0  0
    7.2459   51.1757  127.9547 N   0  0  0  0  0  0  0  0  0  0  0  0
    6.9415   52.4678  128.3727 C   0  0  0  0  0  0  0  0  0  0  0  0
    6.7596   52.5488  129.6671 O   0  0  0  0  0  0  0  0  0  0  0  0
    6.8115   53.6643  127.7082 N   0  0  0  0  0  0  0  0  0  0  0  0
    7.4203   51.0303  126.9196 H   0  0  0  0  0  0  0  0  0  0  0  0
    6.5880   54.5064  128.4324 H   0  0  0  0  0  0  0  0  0  0  0  0
    6.7461   54.1448  126.3945 C   0  0  0  0  0  0  0  0  0  0  0  0
    7.7508   53.7366  125.4548 C   0  0  0  0  0  0  0  0  0  0  0  0
    7.4832   54.4015  124.2896 C   0  0  0  0  0  0  0  0  0  0  0  0
    6.4191   55.1346  124.5218 N   0  0  0  0  0  0  0  0  0  0  0  0
    5.9529   55.0025  125.7853 N   0  0  0  0  0  0  0  0  0  0  0  0
    4.8448   55.7941  126.2435 C   0  0  0  0  0  0  0  0  0  0  0  0
    3.5500   55.3431  126.1585 C   0  0  0  0  0  0  0  0  0  0  0  0
    2.4740   56.0646  126.6788 C   0  0  0  0  0  0  0  0  0  0  0  0
    2.6815   57.2737  127.3052 C   0  0  0  0  0  0  0  0  0  0  0  0
    1.5262   58.0353  127.8767 C   0  0  0  0  0  0  0  0  0  0  0  0
    3.9815   57.7277  127.3885 C   0  0  0  0  0  0  0  0  0  0  0  0
    5.0574   57.0110  126.8709 C   0  0  0  0  0  0  0  0  0  0  0  0
    8.2606   54.2789  122.9957 C   0  0  0  0  0  0  0  0  0  0  0  0
    7.2899   54.3517  121.8634 C   0  0  0  0  0  0  0  0  0  0  0  0
    9.3011   55.3973  122.9384 C   0  0  0  0  0  0  0  0  0  0  0  0
    8.9688   52.9532  123.0347 C   0  0  0  0  0  0  0  0  0  0  0  0
    7.5382   46.7540  131.2655 O   0  0  0  0  0  0  0  0  0  0  0  0
    9.2000   43.9306  132.6432 C   0  0  0  0  0  0  0  0  0  0  0  0
    8.5394   43.7718  133.7881 N   0  0  0  0  0  0  0  0  0  0  0  0
    7.5291   44.5952  134.1277 C   0  0  0  0  0  0  0  0  0  0  0  0
    7.1662   45.6044  133.3089 C   0  0  0  0  0  0  0  0  0  0  0  0
    7.8433   45.8119  132.0755 C   0  0  0  0  0  0  0  0  0  0  0  0
    8.8551   44.9197  131.8199 N   0  0  0  0  0  0  0  0  0  0  0  0
   10.2815   43.0863  132.3032 N   0  0  0  0  0  0  0  0  0  0  0  0
   10.5667   42.3133  132.9178 H   0  0  0  0  0  0  0  0  0  0  0  0
   12.9609   44.0385  129.9477 C   0  0  0  0  0  0  0  0  0  0  0  0
   12.2875   43.7600  131.1166 C   0  0  0  0  0  0  0  0  0  0  0  0
   10.9715   43.3373  131.0865 C   0  0  0  0  0  0  0  0  0  0  0  0
   10.3452   43.1977  129.8788 C   0  0  0  0  0  0  0  0  0  0  0  0
   10.9885   43.4694  128.6678 C   0  0  0  0  0  0  0  0  0  0  0  0
   12.2877   43.8866  128.7199 C   0  0  0  0  0  0  0  0  0  0  0  0
   15.1760   44.0939  128.9524 C   0  0  0  0  0  0  0  0  0  0  0  0
   14.2686   44.4602  129.9407 O   0  0  0  0  0  0  0  0  0  0  0  0
   10.3218   43.3197  127.4700 O   0  0  0  0  0  0  0  0  0  0  0  0
    9.0421   43.8368  127.2583 C   0  0  0  0  0  0  0  0  0  0  0  0
 48 49  1  0  0  0
 49 42  1  0  0  0
 42 43  2  0  0  0
 43 44  1  0  0  0
 44 40  1  0  0  0
 40 34  1  0  0  0
 34 35  2  0  0  0
 35 36  1  0  0  0
 36 37  2  0  0  0
 37 38  1  0  0  0
 38 33  1  0  0  0
 33  1  1  0  0  0
  1  2  2  0  0  0
  2  3  1  0  0  0
  3  4  2  0  0  0
  4 11  1  0  0  0
 11 12  1  0  0  0
 12 13  2  0  0  0
 12 14  1  0  0  0
 14 17  1  0  0  0
 17 18  2  0  0  0
 18 19  1  0  0  0
 19 20  2  0  0  0
 20 21  1  0  0  0
 21 22  1  0  0  0
 22 23  2  0  0  0
 23 24  1  0  0  0
 24 25  2  0  0  0
 25 26  1  0  0  0
 25 27  1  0  0  0
 27 28  2  0  0  0
 19 29  1  0  0  0
 29 30  1  0  0  0
 29 31  1  0  0  0
 29 32  1  0  0  0
  4  5  1  0  0  0
  5  6  2  0  0  0
  6  7  1  0  0  0
  7  8  2  0  0  0
  8  9  1  0  0  0
  9 10  2  0  0  0
 38 39  2  0  0  0
 44 45  2  0  0  0
 45 46  1  0  0  0
 46 50  1  0  0  0
 50 51  1  0  0  0
 46 47  2  0  0  0
 47 42  1  0  0  0
 39 34  1  0  0  0
 10  1  1  0  0  0
 21 17  1  0  0  0
 28 22  1  0  0  0
 10  5  1  0  0  0
 40 41  1  0  0  0
 11 15  1  0  0  0
 14 16  1  0  0  0
M  END
> <minimizedAffinity>
4.49515

> <CNNscore>
0.4991902709

> <CNNaffinity>
7.9671554565

> <CNN_VS>
3.9771265984

> <CNNaffinity_variance>
0.6138493419

$$$$
[H]c1nc(N([H])c2c([H])c(OC([H])([H])[H])c([H])c(OC([H])([H])[H])c2[H])nc(Oc2c([H])c([H])c(N([H])C(=O)N([H])c3c([H])c(C(C([H])([H])[H])(C([H])([H])[H])C([H])([H])[H])nn3-c3c([H])c([H])c(C([H])([H])[H])c([H])c3[H])c3c([H])c([H])c([H])c([H])c23)c1[H]


 51 56  0  0  0  0  0  0  0  0999 V2000
    7.4768   47.7583  130.4586 C   0  0  0  0  0  0  0  0  0  0  0  0
    6.8167   47.6975  129.2216 C   0  0  0  0  0  0  0  0  0  0  0  0
    6.8070   48.8104  128.4176 C   0  0  0  0  0  0  0  0  0  0  0  0
    7.4167   50.0155  128.7504 C   0  0  0  0  0  0  0  0  0  0  0  0
    8.0603   50.0406  129.9721 C   0  0  0  0  0  0  0  0  0  0  0  0
    8.7241   51.2121  130.3755 C   0  0  0  0  0  0  0  0  0  0  0  0
    9.3897   51.2825  131.5640 C   0  0  0  0  0  0  0  0  0  0  0  0
    9.4295   50.1916  132.4075 C   0  0  0  0  0  0  0  0  0  0  0  0
    8.7849   49.0301  132.0322 C   0  0  0  0  0  0  0  0  0  0  0  0
    8.1041   48.9685  130.8119 C   0  0  0  0  0  0  0  0  0  0  0  0
    7.2453   51.1795  127.9619 N   0  0  0  0  0  0  0  0  0  0  0  0
    6.9385   52.4717  128.3778 C   0  0  0  0  0  0  0  0  0  0  0  0
    6.7503   52.5532  129.6712 O   0  0  0  0  0  0  0  0  0  0  0  0
    6.8113   53.6678  127.7121 N   0  0  0  0  0  0  0  0  0  0  0  0
    7.4248   51.0336  126.9278 H   0  0  0  0  0  0  0  0  0  0  0  0
    6.5839   54.5102  128.4347 H   0  0  0  0  0  0  0  0  0  0  0  0
    6.7521   54.1476  126.3978 C   0  0  0  0  0  0  0  0  0  0  0  0
    7.7600   53.7373  125.4625 C   0  0  0  0  0  0  0  0  0  0  0  0
    7.4982   54.4019  124.2959 C   0  0  0  0  0  0  0  0  0  0  0  0
    6.4343   55.1368  124.5232 N   0  0  0  0  0  0  0  0  0  0  0  0
    5.9627   55.0062  125.7848 N   0  0  0  0  0  0  0  0  0  0  0  0
    4.8539   55.7996  126.2380 C   0  0  0  0  0  0  0  0  0  0  0  0
    3.5550   55.3768  126.0927 C   0  0  0  0  0  0  0  0  0  0  0  0
    2.4750   56.0973  126.6061 C   0  0  0  0  0  0  0  0  0  0  0  0
    2.6826   57.2766  127.2870 C   0  0  0  0  0  0  0  0  0  0  0  0
    1.5223   58.0365  127.8505 C   0  0  0  0  0  0  0  0  0  0  0  0
    3.9867   57.7024  127.4308 C   0  0  0  0  0  0  0  0  0  0  0  0
    5.0667   56.9866  126.9203 C   0  0  0  0  0  0  0  0  0  0  0  0
    8.2808   54.2774  123.0053 C   0  0  0  0  0  0  0  0  0  0  0  0
    8.9378   52.9365  122.9895 C   0  0  0  0  0  0  0  0  0  0  0  0
    7.3235   54.4664  121.8285 C   0  0  0  0  0  0  0  0  0  0  0  0
    9.2916   55.3904  122.9974 C   0  0  0  0  0  0  0  0  0  0  0  0
    7.5292   46.7649  131.2831 O   0  0  0  0  0  0  0  0  0  0  0  0
    9.2166   43.9300  132.6048 C   0  0  0  0  0  0  0  0  0  0  0  0
    8.5317   43.7181  133.7267 N   0  0  0  0  0  0  0  0  0  0  0  0
    7.4961   44.5083  134.0687 C   0  0  0  0  0  0  0  0  0  0  0  0
    7.1319   45.5377  133.2760 C   0  0  0  0  0  0  0  0  0  0  0  0
    7.8344   45.8018  132.0678 C   0  0  0  0  0  0  0  0  0  0  0  0
    8.8709   44.9399  131.8074 N   0  0  0  0  0  0  0  0  0  0  0  0
   10.3238   43.1204  132.2635 N   0  0  0  0  0  0  0  0  0  0  0  0
   10.6126   42.3348  132.8603 H   0  0  0  0  0  0  0  0  0  0  0  0
   11.0690   43.6288  128.6829 C   0  0  0  0  0  0  0  0  0  0  0  0
   10.3868   43.3686  129.8510 C   0  0  0  0  0  0  0  0  0  0  0  0
   11.0346   43.4242  131.0711 C   0  0  0  0  0  0  0  0  0  0  0  0
   12.3643   43.7425  131.1043 C   0  0  0  0  0  0  0  0  0  0  0  0
   13.0968   44.0135  129.9449 C   0  0  0  0  0  0  0  0  0  0  0  0
   12.4382   43.9522  128.7503 C   0  0  0  0  0  0  0  0  0  0  0  0
    9.0767   43.6444  127.2935 C   0  0  0  0  0  0  0  0  0  0  0  0
   10.4568   43.5828  127.4537 O   0  0  0  0  0  0  0  0  0  0  0  0
   14.4374   44.3278  130.0192 O   0  0  0  0  0  0  0  0  0  0  0  0
   15.3249   44.0640  128.9739 C   0  0  0  0  0  0  0  0  0  0  0  0
 48 49  1  0  0  0
 49 42  1  0  0  0
 42 43  2  0  0  0
 43 44  1  0  0  0
 44 40  1  0  0  0
 40 34  1  0  0  0
 34 35  2  0  0  0
 35 36  1  0  0  0
 36 37  2  0  0  0
 37 38  1  0  0  0
 38 33  1  0  0  0
 33  1  1  0  0  0
  1  2  2  0  0  0
  2  3  1  0  0  0
  3  4  2  0  0  0
  4 11  1  0  0  0
 11 12  1  0  0  0
 12 13  2  0  0  0
 12 14  1  0  0  0
 14 17  1  0  0  0
 17 18  2  0  0  0
 18 19  1  0  0  0
 19 20  2  0  0  0
 20 21  1  0  0  0
 21 22  1  0  0  0
 22 23  2  0  0  0
 23 24  1  0  0  0
 24 25  2  0  0  0
 25 26  1  0  0  0
 25 27  1  0  0  0
 27 28  2  0  0  0
 19 29  1  0  0  0
 29 30  1  0  0  0
 29 31  1  0  0  0
 29 32  1  0  0  0
  4  5  1  0  0  0
  5  6  2  0  0  0
  6  7  1  0  0  0
  7  8  2  0  0  0
  8  9  1  0  0  0
  9 10  2  0  0  0
 38 39  2  0  0  0
 44 45  2  0  0  0
 45 46  1  0  0  0
 46 50  1  0  0  0
 50 51  1  0  0  0
 46 47  2  0  0  0
 47 42  1  0  0  0
 39 34  1  0  0  0
 10  1  1  0  0  0
 21 17  1  0  0  0
 28 22  1  0  0  0
 10  5  1  0  0  0
 40 41  1  0  0  0
 11 15  1  0  0  0
 14 16  1  0  0  0
M  END
> <minimizedAffinity>
4.88608

> <CNNscore>
0.4967995286

> <CNNaffinity>
7.9933929443

> <CNN_VS>
3.9711139202

> <CNNaffinity_variance>
0.6226700544

$$$$
[H]c1nc(N([H])c2c([H])c(OC([H])([H])[H])c([H])c(OC([H])([H])[H])c2[H])nc(Oc2c([H])c([H])c(N([H])C(=O)N([H])c3c([H])c(C(C([H])([H])[H])(C([H])([H])[H])C([H])([H])[H])nn3-c3c([H])c([H])c(C([H])([H])[H])c([H])c3[H])c3c([H])c([H])c([H])c([H])c23)c1[H]


 51 56  0  0  0  0  0  0  0  0999 V2000
    7.2708   50.4421  129.2634 C   0  0  0  0  0  0  0  0  0  0  0  0
    6.1612   49.7174  129.7252 C   0  0  0  0  0  0  0  0  0  0  0  0
    6.3691   48.6210  130.5250 C   0  0  0  0  0  0  0  0  0  0  0  0
    7.6258   48.1706  130.9159 C   0  0  0  0  0  0  0  0  0  0  0  0
    8.6955   48.9079  130.4475 C   0  0  0  0  0  0  0  0  0  0  0  0
   10.0003   48.5363  130.8155 C   0  0  0  0  0  0  0  0  0  0  0  0
   11.0892   49.2417  130.3945 C   0  0  0  0  0  0  0  0  0  0  0  0
   10.9338   50.3513  129.5898 C   0  0  0  0  0  0  0  0  0  0  0  0
    9.6616   50.7353  129.2157 C   0  0  0  0  0  0  0  0  0  0  0  0
    8.5517   50.0045  129.6517 C   0  0  0  0  0  0  0  0  0  0  0  0
    7.7961   46.9472  131.6089 N   0  0  0  0  0  0  0  0  0  0  0  0
    8.1204   46.7461  132.9473 C   0  0  0  0  0  0  0  0  0  0  0  0
    8.3280   47.8684  133.5894 O   0  0  0  0  0  0  0  0  0  0  0  0
    8.2487   45.6190  133.7239 N   0  0  0  0  0  0  0  0  0  0  0  0
    7.6004   46.0859  131.0235 H   0  0  0  0  0  0  0  0  0  0  0  0
    8.4939   45.8926  134.7956 H   0  0  0  0  0  0  0  0  0  0  0  0
    8.2931   44.2276  133.5725 C   0  0  0  0  0  0  0  0  0  0  0  0
    7.3589   43.4193  134.3023 C   0  0  0  0  0  0  0  0  0  0  0  0
    7.6719   42.1176  134.0212 C   0  0  0  0  0  0  0  0  0  0  0  0
    8.6968   42.1556  133.2017 N   0  0  0  0  0  0  0  0  0  0  0  0
    9.0962   43.4162  132.9145 N   0  0  0  0  0  0  0  0  0  0  0  0
   10.2568   43.6492  132.1003 C   0  0  0  0  0  0  0  0  0  0  0  0
   11.5216   43.6779  132.6355 C   0  0  0  0  0  0  0  0  0  0  0  0
   12.6629   43.8163  131.8435 C   0  0  0  0  0  0  0  0  0  0  0  0
   12.5538   43.9306  130.4751 C   0  0  0  0  0  0  0  0  0  0  0  0
   13.7818   44.0615  129.6288 C   0  0  0  0  0  0  0  0  0  0  0  0
   11.2835   43.9042  129.9379 C   0  0  0  0  0  0  0  0  0  0  0  0
   10.1427   43.7662  130.7244 C   0  0  0  0  0  0  0  0  0  0  0  0
    6.9478   40.8947  134.5446 C   0  0  0  0  0  0  0  0  0  0  0  0
    7.9732   39.8963  134.9708 C   0  0  0  0  0  0  0  0  0  0  0  0
    6.0374   41.3171  135.6976 C   0  0  0  0  0  0  0  0  0  0  0  0
    6.1001   40.3725  133.4179 C   0  0  0  0  0  0  0  0  0  0  0  0
    7.1712   51.4796  128.4997 O   0  0  0  0  0  0  0  0  0  0  0  0
    8.0410   53.9542  126.1017 C   0  0  0  0  0  0  0  0  0  0  0  0
    7.4169   55.0233  126.5916 N   0  0  0  0  0  0  0  0  0  0  0  0
    6.6960   54.9479  127.7268 C   0  0  0  0  0  0  0  0  0  0  0  0
    6.5908   53.7789  128.3924 C   0  0  0  0  0  0  0  0  0  0  0  0
    7.2408   52.6109  127.9065 C   0  0  0  0  0  0  0  0  0  0  0  0
    7.9515   52.7912  126.7457 N   0  0  0  0  0  0  0  0  0  0  0  0
    8.7700   54.0268  124.8928 N   0  0  0  0  0  0  0  0  0  0  0  0
    9.7931   53.9279  124.8817 H   0  0  0  0  0  0  0  0  0  0  0  0
    6.1120   53.8380  122.3367 C   0  0  0  0  0  0  0  0  0  0  0  0
    6.8090   53.6620  123.5117 C   0  0  0  0  0  0  0  0  0  0  0  0
    8.0499   54.2459  123.6875 C   0  0  0  0  0  0  0  0  0  0  0  0
    8.5777   55.0031  122.6783 C   0  0  0  0  0  0  0  0  0  0  0  0
    7.9069   55.2084  121.4691 C   0  0  0  0  0  0  0  0  0  0  0  0
    6.6833   54.6221  121.3156 C   0  0  0  0  0  0  0  0  0  0  0  0
    3.7053   53.7981  122.6624 C   0  0  0  0  0  0  0  0  0  0  0  0
    4.8770   53.2729  122.1284 O   0  0  0  0  0  0  0  0  0  0  0  0
    8.4737   55.9762  120.4738 O   0  0  0  0  0  0  0  0  0  0  0  0
    7.8539   57.1219  119.9706 C   0  0  0  0  0  0  0  0  0  0  0  0
 48 49  1  0  0  0
 49 42  1  0  0  0
 42 43  2  0  0  0
 43 44  1  0  0  0
 44 40  1  0  0  0
 40 34  1  0  0  0
 34 35  2  0  0  0
 35 36  1  0  0  0
 36 37  2  0  0  0
 37 38  1  0  0  0
 38 33  1  0  0  0
 33  1  1  0  0  0
  1  2  2  0  0  0
  2  3  1  0  0  0
  3  4  2  0  0  0
  4 11  1  0  0  0
 11 12  1  0  0  0
 12 13  2  0  0  0
 12 14  1  0  0  0
 14 17  1  0  0  0
 17 18  2  0  0  0
 18 19  1  0  0  0
 19 20  2  0  0  0
 20 21  1  0  0  0
 21 22  1  0  0  0
 22 23  2  0  0  0
 23 24  1  0  0  0
 24 25  2  0  0  0
 25 26  1  0  0  0
 25 27  1  0  0  0
 27 28  2  0  0  0
 19 29  1  0  0  0
 29 30  1  0  0  0
 29 31  1  0  0  0
 29 32  1  0  0  0
  4  5  1  0  0  0
  5  6  2  0  0  0
  6  7  1  0  0  0
  7  8  2  0  0  0
  8  9  1  0  0  0
  9 10  2  0  0  0
 38 39  2  0  0  0
 44 45  2  0  0  0
 45 46  1  0  0  0
 46 50  1  0  0  0
 50 51  1  0  0  0
 46 47  2  0  0  0
 47 42  1  0  0  0
 39 34  1  0  0  0
 10  1  1  0  0  0
 21 17  1  0  0  0
 28 22  1  0  0  0
 10  5  1  0  0  0
 40 41  1  0  0  0
 11 15  1  0  0  0
 14 16  1  0  0  0
M  END
> <minimizedAffinity>
29.80664

> <CNNscore>
0.4922020435

> <CNNaffinity>
7.4432106018

> <CNN_VS>
3.6635634899

> <CNNaffinity_variance>
0.6576555967

$$$$
[H]c1nc(N([H])c2c([H])c(OC([H])([H])[H])c([H])c(OC([H])([H])[H])c2[H])nc(Oc2c([H])c([H])c(N([H])C(=O)N([H])c3c([H])c(C(C([H])([H])[H])(C([H])([H])[H])C([H])([H])[H])nn3-c3c([H])c([H])c(C([H])([H])[H])c([H])c3[H])c3c([H])c([H])c([H])c([H])c23)c1[H]


 51 56  0  0  0  0  0  0  0  0999 V2000
    8.2254   48.6667  131.1915 C   0  0  0  0  0  0  0  0  0  0  0  0
    8.7861   49.9459  131.3293 C   0  0  0  0  0  0  0  0  0  0  0  0
    8.4364   50.9253  130.4329 C   0  0  0  0  0  0  0  0  0  0  0  0
    7.5494   50.7340  129.3787 C   0  0  0  0  0  0  0  0  0  0  0  0
    7.0131   49.4656  129.2737 C   0  0  0  0  0  0  0  0  0  0  0  0
    6.0883   49.1928  128.2508 C   0  0  0  0  0  0  0  0  0  0  0  0
    5.5163   47.9619  128.1149 C   0  0  0  0  0  0  0  0  0  0  0  0
    5.8340   46.9441  128.9901 C   0  0  0  0  0  0  0  0  0  0  0  0
    6.7398   47.1888  130.0027 C   0  0  0  0  0  0  0  0  0  0  0  0
    7.3216   48.4540  130.1327 C   0  0  0  0  0  0  0  0  0  0  0  0
    7.3422   51.7268  128.3903 N   0  0  0  0  0  0  0  0  0  0  0  0
    7.1412   53.0933  128.5619 C   0  0  0  0  0  0  0  0  0  0  0  0
    7.1032   53.4422  129.8235 O   0  0  0  0  0  0  0  0  0  0  0  0
    6.9930   54.1390  127.6819 N   0  0  0  0  0  0  0  0  0  0  0  0
    7.3979   51.3670  127.3951 H   0  0  0  0  0  0  0  0  0  0  0  0
    6.8856   55.1213  128.2362 H   0  0  0  0  0  0  0  0  0  0  0  0
    6.8080   54.3511  126.3101 C   0  0  0  0  0  0  0  0  0  0  0  0
    7.7860   53.8441  125.3907 C   0  0  0  0  0  0  0  0  0  0  0  0
    7.3928   54.2505  124.1451 C   0  0  0  0  0  0  0  0  0  0  0  0
    6.2853   54.9347  124.3152 N   0  0  0  0  0  0  0  0  0  0  0  0
    5.9087   55.0149  125.6125 N   0  0  0  0  0  0  0  0  0  0  0  0
    4.7659   55.7967  125.9962 C   0  0  0  0  0  0  0  0  0  0  0  0
    3.4939   55.2788  125.9702 C   0  0  0  0  0  0  0  0  0  0  0  0
    2.3868   55.9989  126.4227 C   0  0  0  0  0  0  0  0  0  0  0  0
    2.5388   57.2750  126.9186 C   0  0  0  0  0  0  0  0  0  0  0  0
    1.3507   58.0365  127.4187 C   0  0  0  0  0  0  0  0  0  0  0  0
    3.8159   57.7959  126.9426 C   0  0  0  0  0  0  0  0  0  0  0  0
    4.9227   57.0809  126.4922 C   0  0  0  0  0  0  0  0  0  0  0  0
    8.0990   53.9380  122.8424 C   0  0  0  0  0  0  0  0  0  0  0  0
    9.1126   55.0068  122.5969 C   0  0  0  0  0  0  0  0  0  0  0  0
    8.7341   52.5514  122.9466 C   0  0  0  0  0  0  0  0  0  0  0  0
    7.0466   53.9146  121.7688 C   0  0  0  0  0  0  0  0  0  0  0  0
    8.5034   47.6826  131.9812 O   0  0  0  0  0  0  0  0  0  0  0  0
   10.2065   44.8607  133.3105 C   0  0  0  0  0  0  0  0  0  0  0  0
   10.0276   45.0396  134.6176 N   0  0  0  0  0  0  0  0  0  0  0  0
    9.3383   46.0974  135.0865 C   0  0  0  0  0  0  0  0  0  0  0  0
    8.8141   47.0028  134.2343 C   0  0  0  0  0  0  0  0  0  0  0  0
    8.9797   46.8522  132.8298 C   0  0  0  0  0  0  0  0  0  0  0  0
    9.6944   45.7422  132.4527 N   0  0  0  0  0  0  0  0  0  0  0  0
   10.9581   43.7681  132.8211 N   0  0  0  0  0  0  0  0  0  0  0  0
   11.2379   42.9956  133.4388 H   0  0  0  0  0  0  0  0  0  0  0  0
   12.9291   44.2607  129.7378 C   0  0  0  0  0  0  0  0  0  0  0  0
   12.5710   44.2251  131.0674 C   0  0  0  0  0  0  0  0  0  0  0  0
   11.3233   43.7668  131.4478 C   0  0  0  0  0  0  0  0  0  0  0  0
   10.4470   43.3472  130.4854 C   0  0  0  0  0  0  0  0  0  0  0  0
   10.7666   43.3659  129.1246 C   0  0  0  0  0  0  0  0  0  0  0  0
   12.0036   43.8232  128.7703 C   0  0  0  0  0  0  0  0  0  0  0  0
   15.1525   43.8613  128.8452 C   0  0  0  0  0  0  0  0  0  0  0  0
   14.1602   44.7096  129.3245 O   0  0  0  0  0  0  0  0  0  0  0  0
    9.8544   42.9374  128.1835 O   0  0  0  0  0  0  0  0  0  0  0  0
    8.7876   43.7334  127.7614 C   0  0  0  0  0  0  0  0  0  0  0  0
 48 49  1  0  0  0
 49 42  1  0  0  0
 42 43  2  0  0  0
 43 44  1  0  0  0
 44 40  1  0  0  0
 40 34  1  0  0  0
 34 35  2  0  0  0
 35 36  1  0  0  0
 36 37  2  0  0  0
 37 38  1  0  0  0
 38 33  1  0  0  0
 33  1  1  0  0  0
  1  2  2  0  0  0
  2  3  1  0  0  0
  3  4  2  0  0  0
  4 11  1  0  0  0
 11 12  1  0  0  0
 12 13  2  0  0  0
 12 14  1  0  0  0
 14 17  1  0  0  0
 17 18  2  0  0  0
 18 19  1  0  0  0
 19 20  2  0  0  0
 20 21  1  0  0  0
 21 22  1  0  0  0
 22 23  2  0  0  0
 23 24  1  0  0  0
 24 25  2  0  0  0
 25 26  1  0  0  0
 25 27  1  0  0  0
 27 28  2  0  0  0
 19 29  1  0  0  0
 29 30  1  0  0  0
 29 31  1  0  0  0
 29 32  1  0  0  0
  4  5  1  0  0  0
  5  6  2  0  0  0
  6  7  1  0  0  0
  7  8  2  0  0  0
  8  9  1  0  0  0
  9 10  2  0  0  0
 38 39  2  0  0  0
 44 45  2  0  0  0
 45 46  1  0  0  0
 46 50  1  0  0  0
 50 51  1  0  0  0
 46 47  2  0  0  0
 47 42  1  0  0  0
 39 34  1  0  0  0
 10  1  1  0  0  0
 21 17  1  0  0  0
 28 22  1  0  0  0
 10  5  1  0  0  0
 40 41  1  0  0  0
 11 15  1  0  0  0
 14 16  1  0  0  0
M  END
> <minimizedAffinity>
1.32226

> <CNNscore>
0.4633710980

> <CNNaffinity>
8.1938686371

> <CNN_VS>
3.7968018055

> <CNNaffinity_variance>
0.7254158854

$$$$
[H]c1nc(N([H])c2c([H])c(OC([H])([H])[H])c([H])c(OC([H])([H])[H])c2[H])nc(Oc2c([H])c([H])c(N([H])C(=O)N([H])c3c([H])c(C(C([H])([H])[H])(C([H])([H])[H])C([H])([H])[H])nn3-c3c([H])c([H])c(C([H])([H])[H])c([H])c3[H])c3c([H])c([H])c([H])c([H])c23)c1[H]


 51 56  0  0  0  0  0  0  0  0999 V2000
    8.1684   48.7736  131.1350 C   0  0  0  0  0  0  0  0  0  0  0  0
    8.6978   50.0648  131.2835 C   0  0  0  0  0  0  0  0  0  0  0  0
    8.3453   51.0360  130.3793 C   0  0  0  0  0  0  0  0  0  0  0  0
    7.4847   50.8249  129.3071 C   0  0  0  0  0  0  0  0  0  0  0  0
    6.9788   49.5450  129.1919 C   0  0  0  0  0  0  0  0  0  0  0  0
    6.0816   49.2516  128.1503 C   0  0  0  0  0  0  0  0  0  0  0  0
    5.5398   48.0084  128.0036 C   0  0  0  0  0  0  0  0  0  0  0  0
    5.8616   46.9980  128.8859 C   0  0  0  0  0  0  0  0  0  0  0  0
    6.7406   47.2629  129.9169 C   0  0  0  0  0  0  0  0  0  0  0  0
    7.2917   48.5407  130.0580 C   0  0  0  0  0  0  0  0  0  0  0  0
    7.2762   51.8127  128.3138 N   0  0  0  0  0  0  0  0  0  0  0  0
    7.1677   53.1913  128.4706 C   0  0  0  0  0  0  0  0  0  0  0  0
    7.2282   53.5619  129.7252 O   0  0  0  0  0  0  0  0  0  0  0  0
    7.0278   54.2300  127.5809 N   0  0  0  0  0  0  0  0  0  0  0  0
    7.2490   51.4344  127.3243 H   0  0  0  0  0  0  0  0  0  0  0  0
    7.0132   55.2256  128.1214 H   0  0  0  0  0  0  0  0  0  0  0  0
    6.7714   54.4311  126.2190 C   0  0  0  0  0  0  0  0  0  0  0  0
    7.7089   53.9314  125.2546 C   0  0  0  0  0  0  0  0  0  0  0  0
    7.2483   54.3248  124.0280 C   0  0  0  0  0  0  0  0  0  0  0  0
    6.1416   54.9953  124.2496 N   0  0  0  0  0  0  0  0  0  0  0  0
    5.8294   55.0786  125.5637 N   0  0  0  0  0  0  0  0  0  0  0  0
    4.6968   55.8474  125.9999 C   0  0  0  0  0  0  0  0  0  0  0  0
    3.4213   55.3384  125.9671 C   0  0  0  0  0  0  0  0  0  0  0  0
    2.3249   56.0422  126.4687 C   0  0  0  0  0  0  0  0  0  0  0  0
    2.4915   57.2925  127.0223 C   0  0  0  0  0  0  0  0  0  0  0  0
    1.3151   58.0359  127.5744 C   0  0  0  0  0  0  0  0  0  0  0  0
    3.7719   57.8047  127.0531 C   0  0  0  0  0  0  0  0  0  0  0  0
    4.8681   57.1058  126.5540 C   0  0  0  0  0  0  0  0  0  0  0  0
    7.8926   54.0136  122.6932 C   0  0  0  0  0  0  0  0  0  0  0  0
    6.8138   53.9442  121.6630 C   0  0  0  0  0  0  0  0  0  0  0  0
    8.9235   55.0978  122.3791 C   0  0  0  0  0  0  0  0  0  0  0  0
    8.5998   52.6955  122.8453 C   0  0  0  0  0  0  0  0  0  0  0  0
    8.4516   47.7961  131.9311 O   0  0  0  0  0  0  0  0  0  0  0  0
   10.2067   45.0293  133.3078 C   0  0  0  0  0  0  0  0  0  0  0  0
    9.9735   45.1931  134.6083 N   0  0  0  0  0  0  0  0  0  0  0  0
    9.2292   46.2220  135.0569 C   0  0  0  0  0  0  0  0  0  0  0  0
    8.7039   47.1133  134.1906 C   0  0  0  0  0  0  0  0  0  0  0  0
    8.9265   46.9780  132.7924 C   0  0  0  0  0  0  0  0  0  0  0  0
    9.6947   45.8972  132.4362 N   0  0  0  0  0  0  0  0  0  0  0  0
   11.0153   43.9680  132.8408 N   0  0  0  0  0  0  0  0  0  0  0  0
   11.3603   43.2409  133.4803 H   0  0  0  0  0  0  0  0  0  0  0  0
   10.7465   43.3732  129.2065 C   0  0  0  0  0  0  0  0  0  0  0  0
   10.4308   43.4431  130.5455 C   0  0  0  0  0  0  0  0  0  0  0  0
   11.3451   43.9340  131.4590 C   0  0  0  0  0  0  0  0  0  0  0  0
   12.5696   44.3514  131.0157 C   0  0  0  0  0  0  0  0  0  0  0  0
   12.9339   44.2985  129.6671 C   0  0  0  0  0  0  0  0  0  0  0  0
   12.0166   43.8094  128.7816 C   0  0  0  0  0  0  0  0  0  0  0  0
    8.8760   43.6787  127.6873 C   0  0  0  0  0  0  0  0  0  0  0  0
    9.8623   42.8914  128.2716 O   0  0  0  0  0  0  0  0  0  0  0  0
   14.1799   44.7259  129.2594 O   0  0  0  0  0  0  0  0  0  0  0  0
   15.1743   43.8383  128.8433 C   0  0  0  0  0  0  0  0  0  0  0  0
 48 49  1  0  0  0
 49 42  1  0  0  0
 42 43  2  0  0  0
 43 44  1  0  0  0
 44 40  1  0  0  0
 40 34  1  0  0  0
 34 35  2  0  0  0
 35 36  1  0  0  0
 36 37  2  0  0  0
 37 38  1  0  0  0
 38 33  1  0  0  0
 33  1  1  0  0  0
  1  2  2  0  0  0
  2  3  1  0  0  0
  3  4  2  0  0  0
  4 11  1  0  0  0
 11 12  1  0  0  0
 12 13  2  0  0  0
 12 14  1  0  0  0
 14 17  1  0  0  0
 17 18  2  0  0  0
 18 19  1  0  0  0
 19 20  2  0  0  0
 20 21  1  0  0  0
 21 22  1  0  0  0
 22 23  2  0  0  0
 23 24  1  0  0  0
 24 25  2  0  0  0
 25 26  1  0  0  0
 25 27  1  0  0  0
 27 28  2  0  0  0
 19 29  1  0  0  0
 29 30  1  0  0  0
 29 31  1  0  0  0
 29 32  1  0  0  0
  4  5  1  0  0  0
  5  6  2  0  0  0
  6  7  1  0  0  0
  7  8  2  0  0  0
  8  9  1  0  0  0
  9 10  2  0  0  0
 38 39  2  0  0  0
 44 45  2  0  0  0
 45 46  1  0  0  0
 46 50  1  0  0  0
 50 51  1  0  0  0
 46 47  2  0  0  0
 47 42  1  0  0  0
 39 34  1  0  0  0
 10  1  1  0  0  0
 21 17  1  0  0  0
 28 22  1  0  0  0
 10  5  1  0  0  0
 40 41  1  0  0  0
 11 15  1  0  0  0
 14 16  1  0  0  0
M  END
> <minimizedAffinity>
1.43717

> <CNNscore>
0.4496221244

> <CNNaffinity>
8.1331033707

> <CNN_VS>
3.6568231583

> <CNNaffinity_variance>
0.7166514397

$$$$
[H]c1nc(N([H])c2c([H])c(OC([H])([H])[H])c([H])c(OC([H])([H])[H])c2[H])nc(Oc2c([H])c([H])c(N([H])C(=O)N([H])c3c([H])c(C(C([H])([H])[H])(C([H])([H])[H])C([H])([H])[H])nn3-c3c([H])c([H])c(C([H])([H])[H])c([H])c3[H])c3c([H])c([H])c([H])c([H])c23)c1[H]


 51 56  0  0  0  0  0  0  0  0999 V2000
    8.1696   47.4139  129.2907 C   0  0  0  0  0  0  0  0  0  0  0  0
    9.1095   48.3654  128.8654 C   0  0  0  0  0  0  0  0  0  0  0  0
    8.6676   49.5977  128.4516 C   0  0  0  0  0  0  0  0  0  0  0  0
    7.3290   49.9748  128.4239 C   0  0  0  0  0  0  0  0  0  0  0  0
    6.4308   49.0170  128.8522 C   0  0  0  0  0  0  0  0  0  0  0  0
    5.0594   49.3241  128.8798 C   0  0  0  0  0  0  0  0  0  0  0  0
    4.1337   48.4198  129.3111 C   0  0  0  0  0  0  0  0  0  0  0  0
    4.5265   47.1681  129.7375 C   0  0  0  0  0  0  0  0  0  0  0  0
    5.8683   46.8441  129.7194 C   0  0  0  0  0  0  0  0  0  0  0  0
    6.8095   47.7780  129.2742 C   0  0  0  0  0  0  0  0  0  0  0  0
    6.9114   51.1966  127.8420 N   0  0  0  0  0  0  0  0  0  0  0  0
    7.1958   52.4954  128.2534 C   0  0  0  0  0  0  0  0  0  0  0  0
    7.9076   52.5313  129.3520 O   0  0  0  0  0  0  0  0  0  0  0  0
    6.8962   53.7325  127.7339 N   0  0  0  0  0  0  0  0  0  0  0  0
    6.3486   51.0833  126.9514 H   0  0  0  0  0  0  0  0  0  0  0  0
    7.3532   54.5564  128.3631 H   0  0  0  0  0  0  0  0  0  0  0  0
    6.0933   54.2954  126.7341 C   0  0  0  0  0  0  0  0  0  0  0  0
    4.6670   54.1856  126.8448 C   0  0  0  0  0  0  0  0  0  0  0  0
    4.1467   54.7534  125.7141 C   0  0  0  0  0  0  0  0  0  0  0  0
    5.1724   55.1597  125.0025 N   0  0  0  0  0  0  0  0  0  0  0  0
    6.3614   54.8945  125.5916 N   0  0  0  0  0  0  0  0  0  0  0  0
    7.5950   55.1924  124.9180 C   0  0  0  0  0  0  0  0  0  0  0  0
    7.9102   54.6308  123.7046 C   0  0  0  0  0  0  0  0  0  0  0  0
    9.0641   54.9784  122.9998 C   0  0  0  0  0  0  0  0  0  0  0  0
    9.9386   55.9129  123.5091 C   0  0  0  0  0  0  0  0  0  0  0  0
   11.1658   56.2949  122.7413 C   0  0  0  0  0  0  0  0  0  0  0  0
    9.6234   56.4751  124.7287 C   0  0  0  0  0  0  0  0  0  0  0  0
    8.4734   56.1311  125.4347 C   0  0  0  0  0  0  0  0  0  0  0  0
    2.6752   54.8951  125.3851 C   0  0  0  0  0  0  0  0  0  0  0  0
    2.3911   54.0748  124.1701 C   0  0  0  0  0  0  0  0  0  0  0  0
    1.8546   54.4432  126.5931 C   0  0  0  0  0  0  0  0  0  0  0  0
    2.4205   56.3565  125.1397 C   0  0  0  0  0  0  0  0  0  0  0  0
    8.4927   46.2273  129.6872 O   0  0  0  0  0  0  0  0  0  0  0  0
   10.2840   43.5651  131.2153 C   0  0  0  0  0  0  0  0  0  0  0  0
   10.0506   42.5700  130.3623 N   0  0  0  0  0  0  0  0  0  0  0  0
    9.2966   42.7594  129.2626 C   0  0  0  0  0  0  0  0  0  0  0  0
    8.7583   43.9695  129.0040 C   0  0  0  0  0  0  0  0  0  0  0  0
    8.9810   45.0619  129.8870 C   0  0  0  0  0  0  0  0  0  0  0  0
    9.7635   44.7681  130.9763 N   0  0  0  0  0  0  0  0  0  0  0  0
   11.0481   43.3568  132.3861 N   0  0  0  0  0  0  0  0  0  0  0  0
   11.8267   42.6859  132.4009 H   0  0  0  0  0  0  0  0  0  0  0  0
    9.7053   46.0353  134.5441 C   0  0  0  0  0  0  0  0  0  0  0  0
   10.0146   45.2882  133.4289 C   0  0  0  0  0  0  0  0  0  0  0  0
   10.7081   44.0983  133.5497 C   0  0  0  0  0  0  0  0  0  0  0  0
   11.0833   43.6704  134.7933 C   0  0  0  0  0  0  0  0  0  0  0  0
   10.7918   44.3956  135.9523 C   0  0  0  0  0  0  0  0  0  0  0  0
   10.1070   45.5685  135.8107 C   0  0  0  0  0  0  0  0  0  0  0  0
    9.0493   48.0368  133.3342 C   0  0  0  0  0  0  0  0  0  0  0  0
    9.0173   47.2218  134.4606 O   0  0  0  0  0  0  0  0  0  0  0  0
   11.1900   43.9325  137.1886 O   0  0  0  0  0  0  0  0  0  0  0  0
   11.9940   42.8006  137.3382 C   0  0  0  0  0  0  0  0  0  0  0  0
 48 49  1  0  0  0
 49 42  1  0  0  0
 42 43  2  0  0  0
 43 44  1  0  0  0
 44 40  1  0  0  0
 40 34  1  0  0  0
 34 35  2  0  0  0
 35 36  1  0  0  0
 36 37  2  0  0  0
 37 38  1  0  0  0
 38 33  1  0  0  0
 33  1  1  0  0  0
  1  2  2  0  0  0
  2  3  1  0  0  0
  3  4  2  0  0  0
  4 11  1  0  0  0
 11 12  1  0  0  0
 12 13  2  0  0  0
 12 14  1  0  0  0
 14 17  1  0  0  0
 17 18  2  0  0  0
 18 19  1  0  0  0
 19 20  2  0  0  0
 20 21  1  0  0  0
 21 22  1  0  0  0
 22 23  2  0  0  0
 23 24  1  0  0  0
 24 25  2  0  0  0
 25 26  1  0  0  0
 25 27  1  0  0  0
 27 28  2  0  0  0
 19 29  1  0  0  0
 29 30  1  0  0  0
 29 31  1  0  0  0
 29 32  1  0  0  0
  4  5  1  0  0  0
  5  6  2  0  0  0
  6  7  1  0  0  0
  7  8  2  0  0  0
  8  9  1  0  0  0
  9 10  2  0  0  0
 38 39  2  0  0  0
 44 45  2  0  0  0
 45 46  1  0  0  0
 46 50  1  0  0  0
 50 51  1  0  0  0
 46 47  2  0  0  0
 47 42  1  0  0  0
 39 34  1  0  0  0
 10  1  1  0  0  0
 21 17  1  0  0  0
 28 22  1  0  0  0
 10  5  1  0  0  0
 40 41  1  0  0  0
 11 15  1  0  0  0
 14 16  1  0  0  0
M  END
> <minimizedAffinity>
13.52824

> <CNNscore>
0.4466534257

> <CNNaffinity>
7.9110321999

> <CNN_VS>
3.5334897041

> <CNNaffinity_variance>
0.9513953924

$$$$
[H]c1nc(N([H])c2c([H])c(OC([H])([H])[H])c([H])c(OC([H])([H])[H])c2[H])nc(Oc2c([H])c([H])c(N([H])C(=O)N([H])c3c([H])c(C(C([H])([H])[H])(C([H])([H])[H])C([H])([H])[H])nn3-c3c([H])c([H])c(C([H])([H])[H])c([H])c3[H])c3c([H])c([H])c([H])c([H])c23)c1[H]


 51 56  0  0  0  0  0  0  0  0999 V2000
    6.6065   47.6217  130.2311 C   0  0  0  0  0  0  0  0  0  0  0  0
    5.5064   47.3001  129.4212 C   0  0  0  0  0  0  0  0  0  0  0  0
    4.9147   48.2920  128.6789 C   0  0  0  0  0  0  0  0  0  0  0  0
    5.3375   49.6172  128.6742 C   0  0  0  0  0  0  0  0  0  0  0  0
    6.4241   49.8990  129.4787 C   0  0  0  0  0  0  0  0  0  0  0  0
    6.9320   51.2093  129.5140 C   0  0  0  0  0  0  0  0  0  0  0  0
    8.0139   51.5355  130.2780 C   0  0  0  0  0  0  0  0  0  0  0  0
    8.6443   50.5751  131.0416 C   0  0  0  0  0  0  0  0  0  0  0  0
    8.1633   49.2813  131.0227 C   0  0  0  0  0  0  0  0  0  0  0  0
    7.0525   48.9573  130.2369 C   0  0  0  0  0  0  0  0  0  0  0  0
    4.6000   50.6319  128.0167 N   0  0  0  0  0  0  0  0  0  0  0  0
    3.2204   50.8091  127.9688 C   0  0  0  0  0  0  0  0  0  0  0  0
    2.5687   49.8592  128.5917 O   0  0  0  0  0  0  0  0  0  0  0  0
    2.4162   51.7790  127.4188 N   0  0  0  0  0  0  0  0  0  0  0  0
    5.1992   51.3677  127.5451 H   0  0  0  0  0  0  0  0  0  0  0  0
    1.3243   51.5699  127.6369 H   0  0  0  0  0  0  0  0  0  0  0  0
    2.5213   52.8824  126.5630 C   0  0  0  0  0  0  0  0  0  0  0  0
    3.4869   52.8492  125.5022 C   0  0  0  0  0  0  0  0  0  0  0  0
    3.4191   54.0654  124.8796 C   0  0  0  0  0  0  0  0  0  0  0  0
    2.4987   54.7522  125.5157 N   0  0  0  0  0  0  0  0  0  0  0  0
    1.9405   54.0649  126.5390 N   0  0  0  0  0  0  0  0  0  0  0  0
    0.9742   54.6892  127.3997 C   0  0  0  0  0  0  0  0  0  0  0  0
   -0.0093   53.9647  128.0281 C   0  0  0  0  0  0  0  0  0  0  0  0
   -0.8991   54.5452  128.9337 C   0  0  0  0  0  0  0  0  0  0  0  0
   -0.8168   55.8878  129.2306 C   0  0  0  0  0  0  0  0  0  0  0  0
   -1.7624   56.5019  130.2155 C   0  0  0  0  0  0  0  0  0  0  0  0
    0.1692   56.6158  128.5977 C   0  0  0  0  0  0  0  0  0  0  0  0
    1.0588   56.0405  127.6939 C   0  0  0  0  0  0  0  0  0  0  0  0
    4.2367   54.4988  123.6807 C   0  0  0  0  0  0  0  0  0  0  0  0
    3.8949   55.9202  123.3762 C   0  0  0  0  0  0  0  0  0  0  0  0
    5.7197   54.3169  124.0041 C   0  0  0  0  0  0  0  0  0  0  0  0
    3.8677   53.5843  122.5457 C   0  0  0  0  0  0  0  0  0  0  0  0
    7.2191   46.7565  130.9698 O   0  0  0  0  0  0  0  0  0  0  0  0
    9.8641   45.0359  132.6051 C   0  0  0  0  0  0  0  0  0  0  0  0
    9.2793   44.6841  133.7483 N   0  0  0  0  0  0  0  0  0  0  0  0
    7.9968   45.0079  134.0014 C   0  0  0  0  0  0  0  0  0  0  0  0
    7.2761   45.7012  133.0955 C   0  0  0  0  0  0  0  0  0  0  0  0
    7.8592   46.0979  131.8604 C   0  0  0  0  0  0  0  0  0  0  0  0
    9.1686   45.7186  131.6967 N   0  0  0  0  0  0  0  0  0  0  0  0
   11.2199   44.7242  132.3545 N   0  0  0  0  0  0  0  0  0  0  0  0
   11.8952   44.6302  133.1238 H   0  0  0  0  0  0  0  0  0  0  0  0
   11.0585   44.2849  128.6918 C   0  0  0  0  0  0  0  0  0  0  0  0
   10.6809   44.4874  130.0009 C   0  0  0  0  0  0  0  0  0  0  0  0
   11.6293   44.5480  131.0052 C   0  0  0  0  0  0  0  0  0  0  0  0
   12.9504   44.4052  130.6819 C   0  0  0  0  0  0  0  0  0  0  0  0
   13.3798   44.1975  129.3678 C   0  0  0  0  0  0  0  0  0  0  0  0
   12.4269   44.1398  128.3913 C   0  0  0  0  0  0  0  0  0  0  0  0
    8.8730   43.6749  127.8250 C   0  0  0  0  0  0  0  0  0  0  0  0
   10.1431   44.2196  127.6692 O   0  0  0  0  0  0  0  0  0  0  0  0
   14.7212   44.0548  129.0821 O   0  0  0  0  0  0  0  0  0  0  0  0
   15.5826   45.1490  128.9779 C   0  0  0  0  0  0  0  0  0  0  0  0
 48 49  1  0  0  0
 49 42  1  0  0  0
 42 43  2  0  0  0
 43 44  1  0  0  0
 44 40  1  0  0  0
 40 34  1  0  0  0
 34 35  2  0  0  0
 35 36  1  0  0  0
 36 37  2  0  0  0
 37 38  1  0  0  0
 38 33  1  0  0  0
 33  1  1  0  0  0
  1  2  2  0  0  0
  2  3  1  0  0  0
  3  4  2  0  0  0
  4 11  1  0  0  0
 11 12  1  0  0  0
 12 13  2  0  0  0
 12 14  1  0  0  0
 14 17  1  0  0  0
 17 18  2  0  0  0
 18 19  1  0  0  0
 19 20  2  0  0  0
 20 21  1  0  0  0
 21 22  1  0  0  0
 22 23  2  0  0  0
 23 24  1  0  0  0
 24 25  2  0  0  0
 25 26  1  0  0  0
 25 27  1  0  0  0
 27 28  2  0  0  0
 19 29  1  0  0  0
 29 30  1  0  0  0
 29 31  1  0  0  0
 29 32  1  0  0  0
  4  5  1  0  0  0
  5  6  2  0  0  0
  6  7  1  0  0  0
  7  8  2  0  0  0
  8  9  1  0  0  0
  9 10  2  0  0  0
 38 39  2  0  0  0
 44 45  2  0  0  0
 45 46  1  0  0  0
 46 50  1  0  0  0
 50 51  1  0  0  0
 46 47  2  0  0  0
 47 42  1  0  0  0
 39 34  1  0  0  0
 10  1  1  0  0  0
 21 17  1  0  0  0
 28 22  1  0  0  0
 10  5  1  0  0  0
 40 41  1  0  0  0
 11 15  1  0  0  0
 14 16  1  0  0  0
M  END
> <minimizedAffinity>
16.11910

> <CNNscore>
0.4432834387

> <CNNaffinity>
7.6149797440

> <CNN_VS>
3.3755943775

> <CNNaffinity_variance>
0.6273237467

$$$$
[H]c1nc(N([H])c2c([H])c(OC([H])([H])[H])c([H])c(OC([H])([H])[H])c2[H])nc(Oc2c([H])c([H])c(N([H])C(=O)N([H])c3c([H])c(C(C([H])([H])[H])(C([H])([H])[H])C([H])([H])[H])nn3-c3c([H])c([H])c(C([H])([H])[H])c([H])c3[H])c3c([H])c([H])c([H])c([H])c23)c1[H]


 51 56  0  0  0  0  0  0  0  0999 V2000
    7.7154   47.1850  129.5438 C   0  0  0  0  0  0  0  0  0  0  0  0
    7.1646   47.3318  128.2614 C   0  0  0  0  0  0  0  0  0  0  0  0
    7.1483   48.5770  127.6833 C   0  0  0  0  0  0  0  0  0  0  0  0
    7.6486   49.7235  128.2916 C   0  0  0  0  0  0  0  0  0  0  0  0
    8.1867   49.5438  129.5508 C   0  0  0  0  0  0  0  0  0  0  0  0
    8.7372   50.6463  130.2270 C   0  0  0  0  0  0  0  0  0  0  0  0
    9.2967   50.5185  131.4644 C   0  0  0  0  0  0  0  0  0  0  0  0
    9.3382   49.2887  132.0881 C   0  0  0  0  0  0  0  0  0  0  0  0
    8.8038   48.1914  131.4430 C   0  0  0  0  0  0  0  0  0  0  0  0
    8.2312   48.3334  130.1749 C   0  0  0  0  0  0  0  0  0  0  0  0
    7.4670   51.0079  127.7231 N   0  0  0  0  0  0  0  0  0  0  0  0
    6.8277   52.1164  128.2704 C   0  0  0  0  0  0  0  0  0  0  0  0
    6.3063   51.8678  129.4457 O   0  0  0  0  0  0  0  0  0  0  0  0
    6.6509   53.4087  127.8359 N   0  0  0  0  0  0  0  0  0  0  0  0
    7.9267   51.1326  126.7765 H   0  0  0  0  0  0  0  0  0  0  0  0
    6.0939   54.0220  128.6087 H   0  0  0  0  0  0  0  0  0  0  0  0
    6.8375   54.1713  126.6764 C   0  0  0  0  0  0  0  0  0  0  0  0
    7.9788   53.9076  125.8478 C   0  0  0  0  0  0  0  0  0  0  0  0
    7.9464   54.8318  124.8397 C   0  0  0  0  0  0  0  0  0  0  0  0
    6.8840   55.5724  125.0552 N   0  0  0  0  0  0  0  0  0  0  0  0
    6.1957   55.1991  126.1588 N   0  0  0  0  0  0  0  0  0  0  0  0
    5.0517   55.9497  126.5971 C   0  0  0  0  0  0  0  0  0  0  0  0
    3.7697   55.5433  126.3173 C   0  0  0  0  0  0  0  0  0  0  0  0
    2.6503   56.2157  126.8110 C   0  0  0  0  0  0  0  0  0  0  0  0
    2.7997   57.3284  127.6091 C   0  0  0  0  0  0  0  0  0  0  0  0
    1.5962   58.0357  128.1502 C   0  0  0  0  0  0  0  0  0  0  0  0
    4.0870   57.7380  127.8881 C   0  0  0  0  0  0  0  0  0  0  0  0
    5.2061   57.0700  127.3977 C   0  0  0  0  0  0  0  0  0  0  0  0
    8.9374   54.9411  123.6997 C   0  0  0  0  0  0  0  0  0  0  0  0
    8.2341   54.5657  122.4370 C   0  0  0  0  0  0  0  0  0  0  0  0
    9.4823   56.3687  123.6558 C   0  0  0  0  0  0  0  0  0  0  0  0
   10.0653   53.9961  124.0083 C   0  0  0  0  0  0  0  0  0  0  0  0
    7.7645   46.0551  130.1685 O   0  0  0  0  0  0  0  0  0  0  0  0
    8.9848   43.5393  132.3624 C   0  0  0  0  0  0  0  0  0  0  0  0
    8.6078   42.4325  131.7258 N   0  0  0  0  0  0  0  0  0  0  0  0
    7.9429   42.4955  130.5562 C   0  0  0  0  0  0  0  0  0  0  0  0
    7.6428   43.6900  130.0050 C   0  0  0  0  0  0  0  0  0  0  0  0
    8.0258   44.8987  130.6492 C   0  0  0  0  0  0  0  0  0  0  0  0
    8.7002   44.7285  131.8330 N   0  0  0  0  0  0  0  0  0  0  0  0
    9.6535   43.4724  133.6059 N   0  0  0  0  0  0  0  0  0  0  0  0
    9.7084   42.5921  134.1338 H   0  0  0  0  0  0  0  0  0  0  0  0
   10.0041   46.8793  134.9860 C   0  0  0  0  0  0  0  0  0  0  0  0
    9.4447   45.7092  134.5220 C   0  0  0  0  0  0  0  0  0  0  0  0
   10.2468   44.6599  134.1132 C   0  0  0  0  0  0  0  0  0  0  0  0
   11.6059   44.7979  134.1763 C   0  0  0  0  0  0  0  0  0  0  0  0
   12.2175   45.9666  134.6393 C   0  0  0  0  0  0  0  0  0  0  0  0
   11.4072   46.9911  135.0373 C   0  0  0  0  0  0  0  0  0  0  0  0
    7.8519   47.9663  135.2807 C   0  0  0  0  0  0  0  0  0  0  0  0
    9.2372   47.9415  135.4005 O   0  0  0  0  0  0  0  0  0  0  0  0
   13.5919   46.0687  134.6850 O   0  0  0  0  0  0  0  0  0  0  0  0
   14.2401   47.2165  135.1456 C   0  0  0  0  0  0  0  0  0  0  0  0
 48 49  1  0  0  0
 49 42  1  0  0  0
 42 43  2  0  0  0
 43 44  1  0  0  0
 44 40  1  0  0  0
 40 34  1  0  0  0
 34 35  2  0  0  0
 35 36  1  0  0  0
 36 37  2  0  0  0
 37 38  1  0  0  0
 38 33  1  0  0  0
 33  1  1  0  0  0
  1  2  2  0  0  0
  2  3  1  0  0  0
  3  4  2  0  0  0
  4 11  1  0  0  0
 11 12  1  0  0  0
 12 13  2  0  0  0
 12 14  1  0  0  0
 14 17  1  0  0  0
 17 18  2  0  0  0
 18 19  1  0  0  0
 19 20  2  0  0  0
 20 21  1  0  0  0
 21 22  1  0  0  0
 22 23  2  0  0  0
 23 24  1  0  0  0
 24 25  2  0  0  0
 25 26  1  0  0  0
 25 27  1  0  0  0
 27 28  2  0  0  0
 19 29  1  0  0  0
 29 30  1  0  0  0
 29 31  1  0  0  0
 29 32  1  0  0  0
  4  5  1  0  0  0
  5  6  2  0  0  0
  6  7  1  0  0  0
  7  8  2  0  0  0
  8  9  1  0  0  0
  9 10  2  0  0  0
 38 39  2  0  0  0
 44 45  2  0  0  0
 45 46  1  0  0  0
 46 50  1  0  0  0
 50 51  1  0  0  0
 46 47  2  0  0  0
 47 42  1  0  0  0
 39 34  1  0  0  0
 10  1  1  0  0  0
 21 17  1  0  0  0
 28 22  1  0  0  0
 10  5  1  0  0  0
 40 41  1  0  0  0
 11 15  1  0  0  0
 14 16  1  0  0  0
M  END
> <minimizedAffinity>
9.25874

> <CNNscore>
0.4347087145

> <CNNaffinity>
8.0020761490

> <CNN_VS>
3.4785721302

> <CNNaffinity_variance>
0.5869995952

$$$$
[H]c1nc(N([H])c2c([H])c(OC([H])([H])[H])c([H])c(OC([H])([H])[H])c2[H])nc(Oc2c([H])c([H])c(N([H])C(=O)N([H])c3c([H])c(C(C([H])([H])[H])(C([H])([H])[H])C([H])([H])[H])nn3-c3c([H])c([H])c(C([H])([H])[H])c([H])c3[H])c3c([H])c([H])c([H])c([H])c23)c1[H]


 51 56  0  0  0  0  0  0  0  0999 V2000
    8.1786   47.3854  129.2549 C   0  0  0  0  0  0  0  0  0  0  0  0
    9.2629   48.1976  128.8883 C   0  0  0  0  0  0  0  0  0  0  0  0
    9.0177   49.4729  128.4428 C   0  0  0  0  0  0  0  0  0  0  0  0
    7.7464   50.0254  128.3274 C   0  0  0  0  0  0  0  0  0  0  0  0
    6.7023   49.2015  128.6996 C   0  0  0  0  0  0  0  0  0  0  0  0
    5.3856   49.6896  128.6374 C   0  0  0  0  0  0  0  0  0  0  0  0
    4.3213   48.9225  129.0106 C   0  0  0  0  0  0  0  0  0  0  0  0
    4.5145   47.6346  129.4656 C   0  0  0  0  0  0  0  0  0  0  0  0
    5.7990   47.1338  129.5354 C   0  0  0  0  0  0  0  0  0  0  0  0
    6.8835   47.9281  129.1492 C   0  0  0  0  0  0  0  0  0  0  0  0
    7.5346   51.2851  127.7158 N   0  0  0  0  0  0  0  0  0  0  0  0
    7.0262   52.4502  128.2825 C   0  0  0  0  0  0  0  0  0  0  0  0
    6.6724   52.2892  129.5330 O   0  0  0  0  0  0  0  0  0  0  0  0
    6.8390   53.7246  127.8021 N   0  0  0  0  0  0  0  0  0  0  0  0
    7.8558   51.3376  126.7073 H   0  0  0  0  0  0  0  0  0  0  0  0
    6.4253   54.4038  128.6090 H   0  0  0  0  0  0  0  0  0  0  0  0
    6.8844   54.4152  126.5847 C   0  0  0  0  0  0  0  0  0  0  0  0
    7.9705   54.1612  125.6821 C   0  0  0  0  0  0  0  0  0  0  0  0
    7.7998   55.0104  124.6233 C   0  0  0  0  0  0  0  0  0  0  0  0
    6.7134   55.7016  124.8790 N   0  0  0  0  0  0  0  0  0  0  0  0
    6.1400   55.3662  126.0579 N   0  0  0  0  0  0  0  0  0  0  0  0
    4.9894   56.0781  126.5415 C   0  0  0  0  0  0  0  0  0  0  0  0
    3.7109   55.6679  126.2516 C   0  0  0  0  0  0  0  0  0  0  0  0
    2.5865   56.2994  126.7864 C   0  0  0  0  0  0  0  0  0  0  0  0
    2.7272   57.3734  127.6374 C   0  0  0  0  0  0  0  0  0  0  0  0
    1.5186   58.0361  128.2218 C   0  0  0  0  0  0  0  0  0  0  0  0
    4.0110   57.7867  127.9266 C   0  0  0  0  0  0  0  0  0  0  0  0
    5.1351   57.1596  127.3952 C   0  0  0  0  0  0  0  0  0  0  0  0
    8.6881   55.0978  123.3998 C   0  0  0  0  0  0  0  0  0  0  0  0
    9.7284   54.0318  123.5055 C   0  0  0  0  0  0  0  0  0  0  0  0
    7.8222   54.9392  122.1500 C   0  0  0  0  0  0  0  0  0  0  0  0
    9.2995   56.4714  123.4002 C   0  0  0  0  0  0  0  0  0  0  0  0
    8.3134   46.1711  129.6752 O   0  0  0  0  0  0  0  0  0  0  0  0
    9.1282   43.1189  131.3036 C   0  0  0  0  0  0  0  0  0  0  0  0
    9.0319   42.2525  130.2974 N   0  0  0  0  0  0  0  0  0  0  0  0
    8.6966   42.6604  129.0584 C   0  0  0  0  0  0  0  0  0  0  0  0
    8.4485   43.9637  128.8125 C   0  0  0  0  0  0  0  0  0  0  0  0
    8.5395   44.9251  129.8566 C   0  0  0  0  0  0  0  0  0  0  0  0
    8.8896   44.4107  131.0806 N   0  0  0  0  0  0  0  0  0  0  0  0
    9.4478   42.6851  132.6104 N   0  0  0  0  0  0  0  0  0  0  0  0
    9.2566   41.7214  132.9127 H   0  0  0  0  0  0  0  0  0  0  0  0
   11.3674   44.0640  135.4473 C   0  0  0  0  0  0  0  0  0  0  0  0
   10.8140   43.1723  134.5552 C   0  0  0  0  0  0  0  0  0  0  0  0
   10.0386   43.6207  133.5020 C   0  0  0  0  0  0  0  0  0  0  0  0
    9.8282   44.9641  133.3557 C   0  0  0  0  0  0  0  0  0  0  0  0
   10.3691   45.9053  134.2366 C   0  0  0  0  0  0  0  0  0  0  0  0
   11.1309   45.4412  135.2705 C   0  0  0  0  0  0  0  0  0  0  0  0
   11.8038   42.5777  137.3183 C   0  0  0  0  0  0  0  0  0  0  0  0
   12.1429   43.6534  136.5046 O   0  0  0  0  0  0  0  0  0  0  0  0
   10.1315   47.2517  134.0575 O   0  0  0  0  0  0  0  0  0  0  0  0
   10.8674   48.2344  134.7229 C   0  0  0  0  0  0  0  0  0  0  0  0
 48 49  1  0  0  0
 49 42  1  0  0  0
 42 43  2  0  0  0
 43 44  1  0  0  0
 44 40  1  0  0  0
 40 34  1  0  0  0
 34 35  2  0  0  0
 35 36  1  0  0  0
 36 37  2  0  0  0
 37 38  1  0  0  0
 38 33  1  0  0  0
 33  1  1  0  0  0
  1  2  2  0  0  0
  2  3  1  0  0  0
  3  4  2  0  0  0
  4 11  1  0  0  0
 11 12  1  0  0  0
 12 13  2  0  0  0
 12 14  1  0  0  0
 14 17  1  0  0  0
 17 18  2  0  0  0
 18 19  1  0  0  0
 19 20  2  0  0  0
 20 21  1  0  0  0
 21 22  1  0  0  0
 22 23  2  0  0  0
 23 24  1  0  0  0
 24 25  2  0  0  0
 25 26  1  0  0  0
 25 27  1  0  0  0
 27 28  2  0  0  0
 19 29  1  0  0  0
 29 30  1  0  0  0
 29 31  1  0  0  0
 29 32  1  0  0  0
  4  5  1  0  0  0
  5  6  2  0  0  0
  6  7  1  0  0  0
  7  8  2  0  0  0
  8  9  1  0  0  0
  9 10  2  0  0  0
 38 39  2  0  0  0
 44 45  2  0  0  0
 45 46  1  0  0  0
 46 50  1  0  0  0
 50 51  1  0  0  0
 46 47  2  0  0  0
 47 42  1  0  0  0
 39 34  1  0  0  0
 10  1  1  0  0  0
 21 17  1  0  0  0
 28 22  1  0  0  0
 10  5  1  0  0  0
 40 41  1  0  0  0
 11 15  1  0  0  0
 14 16  1  0  0  0
M  END
> <minimizedAffinity>
11.13369

> <CNNscore>
0.4328619242

> <CNNaffinity>
7.8834638596

> <CNN_VS>
3.4124512672

> <CNNaffinity_variance>
0.7500343323

$$$$
[H]c1c([H])c([H])c(C([H])([H])n2c(=O)n(C3([H])C([H])([H])C([H])([H])N(C(=O)c4c([H])c(OC([H])([H])[H])c(OC([H])([H])[H])c(OC([H])([H])[H])c4[H])C([H])([H])C3([H])[H])c3c([H])c([H])c([H])c([H])c32)c([H])c1[H]


 37 41  0  0  0  0  0  0  0  0999 V2000
    7.5164   48.7937  128.4671 C   0  0  0  0  0  0  0  0  0  0  0  0
    7.3475   48.2026  127.3048 O   0  0  0  0  0  0  0  0  0  0  0  0
    7.9381   47.8971  129.4980 N   0  0  0  0  0  0  0  0  0  0  0  0
    8.1989   48.2537  130.8566 C   0  0  0  0  0  0  0  0  0  0  0  0
    8.6486   47.1700  131.7987 C   0  0  0  0  0  0  0  0  0  0  0  0
    9.2246   46.0348  131.0691 C   0  0  0  0  0  0  0  0  0  0  0  0
    8.0754   45.5767  130.1442 C   0  0  0  0  0  0  0  0  0  0  0  0
    8.0954   46.5014  128.9940 C   0  0  0  0  0  0  0  0  0  0  0  0
    9.7530   44.9627  131.8446 N   0  0  0  0  0  0  0  0  0  0  0  0
   10.8314   45.0875  132.6311 C   0  0  0  0  0  0  0  0  0  0  0  0
   11.6906   46.1370  132.9404 C   0  0  0  0  0  0  0  0  0  0  0  0
   12.7194   45.9049  133.8228 C   0  0  0  0  0  0  0  0  0  0  0  0
   12.9529   44.6872  134.4238 C   0  0  0  0  0  0  0  0  0  0  0  0
   12.0957   43.6608  134.1083 C   0  0  0  0  0  0  0  0  0  0  0  0
   11.0494   43.8597  133.2229 C   0  0  0  0  0  0  0  0  0  0  0  0
   10.0776   43.0292  132.7606 N   0  0  0  0  0  0  0  0  0  0  0  0
    9.2798   43.7176  131.9103 C   0  0  0  0  0  0  0  0  0  0  0  0
    8.2792   43.2355  131.3099 O   0  0  0  0  0  0  0  0  0  0  0  0
    9.8804   41.6443  133.0842 C   0  0  0  0  0  0  0  0  0  0  0  0
    8.5125   41.3976  133.5408 C   0  0  0  0  0  0  0  0  0  0  0  0
    8.2675   40.8800  134.7979 C   0  0  0  0  0  0  0  0  0  0  0  0
    6.9648   40.6617  135.2023 C   0  0  0  0  0  0  0  0  0  0  0  0
    5.8977   40.9482  134.3824 C   0  0  0  0  0  0  0  0  0  0  0  0
    6.1601   41.4599  133.1432 C   0  0  0  0  0  0  0  0  0  0  0  0
    7.4514   41.6935  132.6994 C   0  0  0  0  0  0  0  0  0  0  0  0
    7.3984   52.2497  127.2162 C   0  0  0  0  0  0  0  0  0  0  0  0
    7.6302   50.9063  127.3036 C   0  0  0  0  0  0  0  0  0  0  0  0
    7.2439   50.1936  128.4449 C   0  0  0  0  0  0  0  0  0  0  0  0
    6.6389   50.9333  129.4225 C   0  0  0  0  0  0  0  0  0  0  0  0
    6.4080   52.3029  129.3213 C   0  0  0  0  0  0  0  0  0  0  0  0
    6.7918   52.9766  128.2029 C   0  0  0  0  0  0  0  0  0  0  0  0
    8.5332   54.1114  126.0706 C   0  0  0  0  0  0  0  0  0  0  0  0
    7.8135   52.9056  126.0389 O   0  0  0  0  0  0  0  0  0  0  0  0
    5.7924   52.9670  130.3538 O   0  0  0  0  0  0  0  0  0  0  0  0
    4.8591   52.3043  131.1757 C   0  0  0  0  0  0  0  0  0  0  0  0
    6.5777   54.3323  128.0723 O   0  0  0  0  0  0  0  0  0  0  0  0
    5.9291   54.8485  126.9251 C   0  0  0  0  0  0  0  0  0  0  0  0
 32 33  1  0  0  0
 33 26  1  0  0  0
 26 27  2  0  0  0
 27 28  1  0  0  0
 28 29  2  0  0  0
 29 30  1  0  0  0
 30 34  1  0  0  0
 34 35  1  0  0  0
 30 31  2  0  0  0
 31 36  1  0  0  0
 36 37  1  0  0  0
 28  1  1  0  0  0
  1  2  2  0  0  0
  1  3  1  0  0  0
  3  4  1  0  0  0
  4  5  1  0  0  0
  5  6  1  0  0  0
  6  7  1  0  0  0
  7  8  1  0  0  0
  6  9  1  0  0  0
  9 10  1  0  0  0
 10 11  2  0  0  0
 11 12  1  0  0  0
 12 13  2  0  0  0
 13 14  1  0  0  0
 14 15  2  0  0  0
 15 16  1  0  0  0
 16 19  1  0  0  0
 19 20  1  0  0  0
 20 21  2  0  0  0
 21 22  1  0  0  0
 22 23  2  0  0  0
 23 24  1  0  0  0
 24 25  2  0  0  0
 16 17  1  0  0  0
 17 18  2  0  0  0
 31 26  1  0  0  0
  8  3  1  0  0  0
 17  9  1  0  0  0
 15 10  1  0  0  0
 25 20  1  0  0  0
M  END
> <minimizedAffinity>
30.28553

> <CNNscore>
0.4724539518

> <CNNaffinity>
7.3448476791

> <CNN_VS>
3.4701023102

> <CNNaffinity_variance>
1.3980954885

$$$$
[H]c1c([H])c([H])c(C([H])([H])n2c(=O)n(C3([H])C([H])([H])C([H])([H])N(C(=O)c4c([H])c(OC([H])([H])[H])c(OC([H])([H])[H])c(OC([H])([H])[H])c4[H])C([H])([H])C3([H])[H])c3c([H])c([H])c([H])c([H])c32)c([H])c1[H]


 37 41  0  0  0  0  0  0  0  0999 V2000
    6.9597   52.2986  128.8277 C   0  0  0  0  0  0  0  0  0  0  0  0
    6.1779   52.8343  129.7393 O   0  0  0  0  0  0  0  0  0  0  0  0
    7.7402   51.2092  129.3261 N   0  0  0  0  0  0  0  0  0  0  0  0
    8.6748   50.4391  128.5683 C   0  0  0  0  0  0  0  0  0  0  0  0
    9.3970   49.3176  129.2647 C   0  0  0  0  0  0  0  0  0  0  0  0
    8.6692   48.8761  130.4597 C   0  0  0  0  0  0  0  0  0  0  0  0
    8.5828   50.1528  131.3248 C   0  0  0  0  0  0  0  0  0  0  0  0
    7.4644   50.9383  130.7673 C   0  0  0  0  0  0  0  0  0  0  0  0
    9.2092   47.7718  131.1802 N   0  0  0  0  0  0  0  0  0  0  0  0
    9.1203   47.6503  132.5123 C   0  0  0  0  0  0  0  0  0  0  0  0
    8.5546   48.4227  133.5215 C   0  0  0  0  0  0  0  0  0  0  0  0
    8.6443   47.9756  134.8188 C   0  0  0  0  0  0  0  0  0  0  0  0
    9.2648   46.8005  135.1828 C   0  0  0  0  0  0  0  0  0  0  0  0
    9.8184   46.0487  134.1748 C   0  0  0  0  0  0  0  0  0  0  0  0
    9.7468   46.4697  132.8572 C   0  0  0  0  0  0  0  0  0  0  0  0
   10.1971   45.9179  131.6994 N   0  0  0  0  0  0  0  0  0  0  0  0
    9.8607   46.7272  130.6674 C   0  0  0  0  0  0  0  0  0  0  0  0
   10.1299   46.5003  129.4549 O   0  0  0  0  0  0  0  0  0  0  0  0
   10.9157   44.6855  131.5365 C   0  0  0  0  0  0  0  0  0  0  0  0
   10.0388   43.6235  131.0430 C   0  0  0  0  0  0  0  0  0  0  0  0
   10.2122   43.0909  129.7802 C   0  0  0  0  0  0  0  0  0  0  0  0
    9.3707   42.0861  129.3436 C   0  0  0  0  0  0  0  0  0  0  0  0
    8.3586   41.5976  130.1373 C   0  0  0  0  0  0  0  0  0  0  0  0
    8.2032   42.1365  131.3830 C   0  0  0  0  0  0  0  0  0  0  0  0
    9.0252   43.1450  131.8586 C   0  0  0  0  0  0  0  0  0  0  0  0
    5.4986   54.1984  126.0387 C   0  0  0  0  0  0  0  0  0  0  0  0
    5.6626   53.5825  127.2469 C   0  0  0  0  0  0  0  0  0  0  0  0
    6.8579   52.9185  127.5472 C   0  0  0  0  0  0  0  0  0  0  0  0
    7.8060   52.9419  126.5626 C   0  0  0  0  0  0  0  0  0  0  0  0
    7.6268   53.5737  125.3346 C   0  0  0  0  0  0  0  0  0  0  0  0
    6.4568   54.2134  125.0631 C   0  0  0  0  0  0  0  0  0  0  0  0
    3.1104   54.1431  125.4393 C   0  0  0  0  0  0  0  0  0  0  0  0
    4.2698   54.8484  125.8019 O   0  0  0  0  0  0  0  0  0  0  0  0
    8.6351   53.5473  124.4026 O   0  0  0  0  0  0  0  0  0  0  0  0
    9.5523   54.6130  124.3097 C   0  0  0  0  0  0  0  0  0  0  0  0
    6.2483   54.8480  123.8570 O   0  0  0  0  0  0  0  0  0  0  0  0
    5.8340   54.1116  122.7216 C   0  0  0  0  0  0  0  0  0  0  0  0
 32 33  1  0  0  0
 33 26  1  0  0  0
 26 27  2  0  0  0
 27 28  1  0  0  0
 28 29  2  0  0  0
 29 30  1  0  0  0
 30 34  1  0  0  0
 34 35  1  0  0  0
 30 31  2  0  0  0
 31 36  1  0  0  0
 36 37  1  0  0  0
 28  1  1  0  0  0
  1  2  2  0  0  0
  1  3  1  0  0  0
  3  4  1  0  0  0
  4  5  1  0  0  0
  5  6  1  0  0  0
  6  7  1  0  0  0
  7  8  1  0  0  0
  6  9  1  0  0  0
  9 10  1  0  0  0
 10 11  2  0  0  0
 11 12  1  0  0  0
 12 13  2  0  0  0
 13 14  1  0  0  0
 14 15  2  0  0  0
 15 16  1  0  0  0
 16 19  1  0  0  0
 19 20  1  0  0  0
 20 21  2  0  0  0
 21 22  1  0  0  0
 22 23  2  0  0  0
 23 24  1  0  0  0
 24 25  2  0  0  0
 16 17  1  0  0  0
 17 18  2  0  0  0
 31 26  1  0  0  0
  8  3  1  0  0  0
 17  9  1  0  0  0
 15 10  1  0  0  0
 25 20  1  0  0  0
M  END
> <minimizedAffinity>
13.58421

> <CNNscore>
0.4450309277

> <CNNaffinity>
7.3282308578

> <CNN_VS>
3.2612893581

> <CNNaffinity_variance>
1.2478307486

$$$$
[H]c1c([H])c([H])c(C([H])([H])n2c(=O)n(C3([H])C([H])([H])C([H])([H])N(C(=O)c4c([H])c(OC([H])([H])[H])c(OC([H])([H])[H])c(OC([H])([H])[H])c4[H])C([H])([H])C3([H])[H])c3c([H])c([H])c([H])c([H])c32)c([H])c1[H]


 37 41  0  0  0  0  0  0  0  0999 V2000
    6.7703   52.4607  128.7238 C   0  0  0  0  0  0  0  0  0  0  0  0
    6.3513   53.1417  129.7677 O   0  0  0  0  0  0  0  0  0  0  0  0
    7.4958   51.2802  129.0768 N   0  0  0  0  0  0  0  0  0  0  0  0
    8.0692   50.3491  128.1575 C   0  0  0  0  0  0  0  0  0  0  0  0
    8.7889   49.1527  128.7188 C   0  0  0  0  0  0  0  0  0  0  0  0
    8.3613   48.8701  130.0935 C   0  0  0  0  0  0  0  0  0  0  0  0
    8.6956   50.1729  130.8531 C   0  0  0  0  0  0  0  0  0  0  0  0
    7.5896   51.1039  130.5555 C   0  0  0  0  0  0  0  0  0  0  0  0
    8.9166   47.7199  130.7249 N   0  0  0  0  0  0  0  0  0  0  0  0
    8.2143   46.6036  130.9656 C   0  0  0  0  0  0  0  0  0  0  0  0
    6.9020   46.2114  130.7223 C   0  0  0  0  0  0  0  0  0  0  0  0
    6.5121   44.9498  131.1058 C   0  0  0  0  0  0  0  0  0  0  0  0
    7.3481   44.0436  131.7208 C   0  0  0  0  0  0  0  0  0  0  0  0
    8.6410   44.4456  131.9541 C   0  0  0  0  0  0  0  0  0  0  0  0
    9.0670   45.7097  131.5813 C   0  0  0  0  0  0  0  0  0  0  0  0
   10.2696   46.3341  131.6901 N   0  0  0  0  0  0  0  0  0  0  0  0
   10.1696   47.5752  131.1581 C   0  0  0  0  0  0  0  0  0  0  0  0
   11.1122   48.4131  131.0993 O   0  0  0  0  0  0  0  0  0  0  0  0
   11.4789   45.8144  132.2639 C   0  0  0  0  0  0  0  0  0  0  0  0
   12.2808   45.1128  131.2615 C   0  0  0  0  0  0  0  0  0  0  0  0
   13.6609   45.1307  131.3187 C   0  0  0  0  0  0  0  0  0  0  0  0
   14.3909   44.4554  130.3599 C   0  0  0  0  0  0  0  0  0  0  0  0
   13.7773   43.7603  129.3434 C   0  0  0  0  0  0  0  0  0  0  0  0
   12.4118   43.7539  129.3039 C   0  0  0  0  0  0  0  0  0  0  0  0
   11.6430   44.4180  130.2456 C   0  0  0  0  0  0  0  0  0  0  0  0
    7.1653   54.1687  125.4912 C   0  0  0  0  0  0  0  0  0  0  0  0
    7.4401   53.5934  126.6994 C   0  0  0  0  0  0  0  0  0  0  0  0
    6.4104   53.0457  127.4738 C   0  0  0  0  0  0  0  0  0  0  0  0
    5.1579   53.1353  126.9334 C   0  0  0  0  0  0  0  0  0  0  0  0
    4.8907   53.7243  125.7001 C   0  0  0  0  0  0  0  0  0  0  0  0
    5.9065   54.2508  124.9634 C   0  0  0  0  0  0  0  0  0  0  0  0
    9.4058   53.9514  124.4919 C   0  0  0  0  0  0  0  0  0  0  0  0
    8.2494   54.7010  124.7633 O   0  0  0  0  0  0  0  0  0  0  0  0
    3.5998   53.7700  125.2337 O   0  0  0  0  0  0  0  0  0  0  0  0
    2.5355   54.0851  126.1019 C   0  0  0  0  0  0  0  0  0  0  0  0
    5.6748   54.8408  123.7391 O   0  0  0  0  0  0  0  0  0  0  0  0
    6.0041   54.1615  122.5419 C   0  0  0  0  0  0  0  0  0  0  0  0
 32 33  1  0  0  0
 33 26  1  0  0  0
 26 27  2  0  0  0
 27 28  1  0  0  0
 28 29  2  0  0  0
 29 30  1  0  0  0
 30 34  1  0  0  0
 34 35  1  0  0  0
 30 31  2  0  0  0
 31 36  1  0  0  0
 36 37  1  0  0  0
 28  1  1  0  0  0
  1  2  2  0  0  0
  1  3  1  0  0  0
  3  4  1  0  0  0
  4  5  1  0  0  0
  5  6  1  0  0  0
  6  7  1  0  0  0
  7  8  1  0  0  0
  6  9  1  0  0  0
  9 10  1  0  0  0
 10 11  2  0  0  0
 11 12  1  0  0  0
 12 13  2  0  0  0
 13 14  1  0  0  0
 14 15  2  0  0  0
 15 16  1  0  0  0
 16 19  1  0  0  0
 19 20  1  0  0  0
 20 21  2  0  0  0
 21 22  1  0  0  0
 22 23  2  0  0  0
 23 24  1  0  0  0
 24 25  2  0  0  0
 16 17  1  0  0  0
 17 18  2  0  0  0
 31 26  1  0  0  0
  8  3  1  0  0  0
 17  9  1  0  0  0
 15 10  1  0  0  0
 25 20  1  0  0  0
M  END
> <minimizedAffinity>
22.10932

> <CNNscore>
0.4130379856

> <CNNaffinity>
6.9310088158

> <CNN_VS>
2.8627698421

> <CNNaffinity_variance>
1.3814666271

$$$$
[H]c1c([H])c([H])c(C([H])([H])n2c(=O)n(C3([H])C([H])([H])C([H])([H])N(C(=O)c4c([H])c(OC([H])([H])[H])c(OC([H])([H])[H])c(OC([H])([H])[H])c4[H])C([H])([H])C3([H])[H])c3c([H])c([H])c([H])c([H])c32)c([H])c1[H]


 37 41  0  0  0  0  0  0  0  0999 V2000
    7.0136   52.1101  128.7120 C   0  0  0  0  0  0  0  0  0  0  0  0
    6.6821   52.7535  129.8099 O   0  0  0  0  0  0  0  0  0  0  0  0
    7.6451   50.8527  128.9661 N   0  0  0  0  0  0  0  0  0  0  0  0
    8.1124   49.9396  127.9717 C   0  0  0  0  0  0  0  0  0  0  0  0
    8.7424   48.6531  128.4326 C   0  0  0  0  0  0  0  0  0  0  0  0
    8.3291   48.3172  129.7998 C   0  0  0  0  0  0  0  0  0  0  0  0
    8.7933   49.5349  130.6292 C   0  0  0  0  0  0  0  0  0  0  0  0
    7.7630   50.5723  130.4269 C   0  0  0  0  0  0  0  0  0  0  0  0
    8.8012   47.0857  130.3389 N   0  0  0  0  0  0  0  0  0  0  0  0
    8.7964   45.9342  129.6525 C   0  0  0  0  0  0  0  0  0  0  0  0
    8.4029   45.5715  128.3685 C   0  0  0  0  0  0  0  0  0  0  0  0
    8.5544   44.2608  127.9810 C   0  0  0  0  0  0  0  0  0  0  0  0
    9.0762   43.2776  128.7931 C   0  0  0  0  0  0  0  0  0  0  0  0
    9.4603   43.6514  130.0581 C   0  0  0  0  0  0  0  0  0  0  0  0
    9.3211   44.9630  130.4812 C   0  0  0  0  0  0  0  0  0  0  0  0
    9.6253   45.5782  131.6545 N   0  0  0  0  0  0  0  0  0  0  0  0
    9.3022   46.8897  131.5591 C   0  0  0  0  0  0  0  0  0  0  0  0
    9.4625   47.7409  132.4777 O   0  0  0  0  0  0  0  0  0  0  0  0
   10.1950   44.9875  132.8327 C   0  0  0  0  0  0  0  0  0  0  0  0
    9.6962   45.6381  134.0444 C   0  0  0  0  0  0  0  0  0  0  0  0
   10.5602   46.0096  135.0562 C   0  0  0  0  0  0  0  0  0  0  0  0
   10.0599   46.6258  136.1867 C   0  0  0  0  0  0  0  0  0  0  0  0
    8.7161   46.8820  136.3333 C   0  0  0  0  0  0  0  0  0  0  0  0
    7.8775   46.5077  135.3219 C   0  0  0  0  0  0  0  0  0  0  0  0
    8.3387   45.8876  134.1723 C   0  0  0  0  0  0  0  0  0  0  0  0
    4.9243   53.7762  126.1859 C   0  0  0  0  0  0  0  0  0  0  0  0
    5.3209   53.1121  127.3118 C   0  0  0  0  0  0  0  0  0  0  0  0
    6.6715   52.8041  127.5138 C   0  0  0  0  0  0  0  0  0  0  0  0
    7.5213   53.2115  126.5235 C   0  0  0  0  0  0  0  0  0  0  0  0
    7.1044   53.8882  125.3800 C   0  0  0  0  0  0  0  0  0  0  0  0
    5.7865   54.1777  125.2034 C   0  0  0  0  0  0  0  0  0  0  0  0
    2.5742   53.0443  126.1000 C   0  0  0  0  0  0  0  0  0  0  0  0
    3.5489   54.0543  126.0459 O   0  0  0  0  0  0  0  0  0  0  0  0
    8.0288   54.2606  124.4351 O   0  0  0  0  0  0  0  0  0  0  0  0
    9.3985   53.9922  124.6288 C   0  0  0  0  0  0  0  0  0  0  0  0
    5.3420   54.8461  124.0825 O   0  0  0  0  0  0  0  0  0  0  0  0
    5.1310   54.1494  122.8687 C   0  0  0  0  0  0  0  0  0  0  0  0
 32 33  1  0  0  0
 33 26  1  0  0  0
 26 27  2  0  0  0
 27 28  1  0  0  0
 28 29  2  0  0  0
 29 30  1  0  0  0
 30 34  1  0  0  0
 34 35  1  0  0  0
 30 31  2  0  0  0
 31 36  1  0  0  0
 36 37  1  0  0  0
 28  1  1  0  0  0
  1  2  2  0  0  0
  1  3  1  0  0  0
  3  4  1  0  0  0
  4  5  1  0  0  0
  5  6  1  0  0  0
  6  7  1  0  0  0
  7  8  1  0  0  0
  6  9  1  0  0  0
  9 10  1  0  0  0
 10 11  2  0  0  0
 11 12  1  0  0  0
 12 13  2  0  0  0
 13 14  1  0  0  0
 14 15  2  0  0  0
 15 16  1  0  0  0
 16 19  1  0  0  0
 19 20  1  0  0  0
 20 21  2  0  0  0
 21 22  1  0  0  0
 22 23  2  0  0  0
 23 24  1  0  0  0
 24 25  2  0  0  0
 16 17  1  0  0  0
 17 18  2  0  0  0
 31 26  1  0  0  0
  8  3  1  0  0  0
 17  9  1  0  0  0
 15 10  1  0  0  0
 25 20  1  0  0  0
M  END
> <minimizedAffinity>
17.17773

> <CNNscore>
0.4115103483

> <CNNaffinity>
7.2032608986

> <CNN_VS>
2.9642164707

> <CNNaffinity_variance>
1.0141894817

$$$$
[H]c1c([H])c([H])c(C([H])([H])n2c(=O)n(C3([H])C([H])([H])C([H])([H])N(C(=O)c4c([H])c(OC([H])([H])[H])c(OC([H])([H])[H])c(OC([H])([H])[H])c4[H])C([H])([H])C3([H])[H])c3c([H])c([H])c([H])c([H])c32)c([H])c1[H]


 37 41  0  0  0  0  0  0  0  0999 V2000
    6.4969   51.3873  129.5263 C   0  0  0  0  0  0  0  0  0  0  0  0
    6.0547   51.8315  130.6823 O   0  0  0  0  0  0  0  0  0  0  0  0
    7.3222   50.2262  129.6486 N   0  0  0  0  0  0  0  0  0  0  0  0
    7.9413   49.5269  128.5676 C   0  0  0  0  0  0  0  0  0  0  0  0
    8.7680   48.3121  128.8917 C   0  0  0  0  0  0  0  0  0  0  0  0
    8.4020   47.7513  130.1972 C   0  0  0  0  0  0  0  0  0  0  0  0
    8.6539   48.9183  131.1774 C   0  0  0  0  0  0  0  0  0  0  0  0
    7.4705   49.7937  131.0690 C   0  0  0  0  0  0  0  0  0  0  0  0
    9.0631   46.5555  130.6009 N   0  0  0  0  0  0  0  0  0  0  0  0
   10.1571   46.5473  131.3757 C   0  0  0  0  0  0  0  0  0  0  0  0
   10.9240   47.5368  131.9823 C   0  0  0  0  0  0  0  0  0  0  0  0
   12.0069   47.1562  132.7395 C   0  0  0  0  0  0  0  0  0  0  0  0
   12.3814   45.8448  132.9357 C   0  0  0  0  0  0  0  0  0  0  0  0
   11.6140   44.8793  132.3304 C   0  0  0  0  0  0  0  0  0  0  0  0
   10.5167   45.2275  131.5602 C   0  0  0  0  0  0  0  0  0  0  0  0
    9.6103   44.4801  130.8764 N   0  0  0  0  0  0  0  0  0  0  0  0
    8.7147   45.3071  130.2870 C   0  0  0  0  0  0  0  0  0  0  0  0
    7.7404   44.9286  129.5789 O   0  0  0  0  0  0  0  0  0  0  0  0
    9.5607   43.0497  130.7621 C   0  0  0  0  0  0  0  0  0  0  0  0
    8.6451   42.4721  131.7462 C   0  0  0  0  0  0  0  0  0  0  0  0
    7.4328   41.9360  131.3573 C   0  0  0  0  0  0  0  0  0  0  0  0
    6.5912   41.3942  132.3093 C   0  0  0  0  0  0  0  0  0  0  0  0
    6.9297   41.3730  133.6427 C   0  0  0  0  0  0  0  0  0  0  0  0
    8.1328   41.9073  134.0078 C   0  0  0  0  0  0  0  0  0  0  0  0
    9.0053   42.4602  133.0848 C   0  0  0  0  0  0  0  0  0  0  0  0
    4.3038   52.5767  126.8248 C   0  0  0  0  0  0  0  0  0  0  0  0
    4.7866   51.8764  127.8937 C   0  0  0  0  0  0  0  0  0  0  0  0
    6.0577   52.1571  128.4088 C   0  0  0  0  0  0  0  0  0  0  0  0
    6.7426   53.1539  127.7716 C   0  0  0  0  0  0  0  0  0  0  0  0
    6.2392   53.8609  126.6825 C   0  0  0  0  0  0  0  0  0  0  0  0
    5.0011   53.5718  126.1974 C   0  0  0  0  0  0  0  0  0  0  0  0
    1.9013   52.1948  127.2095 C   0  0  0  0  0  0  0  0  0  0  0  0
    3.0163   52.2423  126.3566 O   0  0  0  0  0  0  0  0  0  0  0  0
    6.9977   54.8484  126.1033 O   0  0  0  0  0  0  0  0  0  0  0  0
    8.3823   54.6690  125.9129 C   0  0  0  0  0  0  0  0  0  0  0  0
    4.4745   54.2532  125.1207 O   0  0  0  0  0  0  0  0  0  0  0  0
    3.1934   54.8487  125.2059 C   0  0  0  0  0  0  0  0  0  0  0  0
 32 33  1  0  0  0
 33 26  1  0  0  0
 26 27  2  0  0  0
 27 28  1  0  0  0
 28 29  2  0  0  0
 29 30  1  0  0  0
 30 34  1  0  0  0
 34 35  1  0  0  0
 30 31  2  0  0  0
 31 36  1  0  0  0
 36 37  1  0  0  0
 28  1  1  0  0  0
  1  2  2  0  0  0
  1  3  1  0  0  0
  3  4  1  0  0  0
  4  5  1  0  0  0
  5  6  1  0  0  0
  6  7  1  0  0  0
  7  8  1  0  0  0
  6  9  1  0  0  0
  9 10  1  0  0  0
 10 11  2  0  0  0
 11 12  1  0  0  0
 12 13  2  0  0  0
 13 14  1  0  0  0
 14 15  2  0  0  0
 15 16  1  0  0  0
 16 19  1  0  0  0
 19 20  1  0  0  0
 20 21  2  0  0  0
 21 22  1  0  0  0
 22 23  2  0  0  0
 23 24  1  0  0  0
 24 25  2  0  0  0
 16 17  1  0  0  0
 17 18  2  0  0  0
 31 26  1  0  0  0
  8  3  1  0  0  0
 17  9  1  0  0  0
 15 10  1  0  0  0
 25 20  1  0  0  0
M  END
> <minimizedAffinity>
26.27921

> <CNNscore>
0.3875929117

> <CNNaffinity>
7.1216402054

> <CNN_VS>
2.7602972984

> <CNNaffinity_variance>
1.4072195292

$$$$
[H]c1c([H])c([H])c(C([H])([H])n2c(=O)n(C3([H])C([H])([H])C([H])([H])N(C(=O)c4c([H])c(OC([H])([H])[H])c(OC([H])([H])[H])c(OC([H])([H])[H])c4[H])C([H])([H])C3([H])[H])c3c([H])c([H])c([H])c([H])c32)c([H])c1[H]


 37 41  0  0  0  0  0  0  0  0999 V2000
    6.2606   52.0433  128.4412 C   0  0  0  0  0  0  0  0  0  0  0  0
    5.1243   52.3881  129.0060 O   0  0  0  0  0  0  0  0  0  0  0  0
    6.9482   51.0077  129.1477 N   0  0  0  0  0  0  0  0  0  0  0  0
    8.2012   50.4336  128.7719 C   0  0  0  0  0  0  0  0  0  0  0  0
    8.7660   49.3393  129.6368 C   0  0  0  0  0  0  0  0  0  0  0  0
    7.7165   48.6962  130.4355 C   0  0  0  0  0  0  0  0  0  0  0  0
    7.1250   49.8593  131.2621 C   0  0  0  0  0  0  0  0  0  0  0  0
    6.1951   50.5611  130.3559 C   0  0  0  0  0  0  0  0  0  0  0  0
    8.1030   47.5952  131.2531 N   0  0  0  0  0  0  0  0  0  0  0  0
    8.9695   47.7047  132.2701 C   0  0  0  0  0  0  0  0  0  0  0  0
    9.6894   48.7592  132.8223 C   0  0  0  0  0  0  0  0  0  0  0  0
   10.5017   48.5051  133.9024 C   0  0  0  0  0  0  0  0  0  0  0  0
   10.6470   47.2605  134.4754 C   0  0  0  0  0  0  0  0  0  0  0  0
    9.9294   46.2295  133.9189 C   0  0  0  0  0  0  0  0  0  0  0  0
    9.1022   46.4501  132.8301 C   0  0  0  0  0  0  0  0  0  0  0  0
    8.2975   45.6200  132.1151 N   0  0  0  0  0  0  0  0  0  0  0  0
    7.6827   46.3344  131.1431 C   0  0  0  0  0  0  0  0  0  0  0  0
    6.8657   45.8594  130.3057 O   0  0  0  0  0  0  0  0  0  0  0  0
    8.0938   44.2123  132.3114 C   0  0  0  0  0  0  0  0  0  0  0  0
    9.3290   43.4624  132.0829 C   0  0  0  0  0  0  0  0  0  0  0  0
    9.6166   42.3292  132.8188 C   0  0  0  0  0  0  0  0  0  0  0  0
   10.7892   41.6400  132.5773 C   0  0  0  0  0  0  0  0  0  0  0  0
   11.6840   42.0535  131.6174 C   0  0  0  0  0  0  0  0  0  0  0  0
   11.3819   43.1760  130.8998 C   0  0  0  0  0  0  0  0  0  0  0  0
   10.2172   43.8956  131.1108 C   0  0  0  0  0  0  0  0  0  0  0  0
    8.2395   53.4623  125.6858 C   0  0  0  0  0  0  0  0  0  0  0  0
    7.8870   52.7827  126.8171 C   0  0  0  0  0  0  0  0  0  0  0  0
    6.5565   52.7741  127.2527 C   0  0  0  0  0  0  0  0  0  0  0  0
    5.6795   53.4778  126.4753 C   0  0  0  0  0  0  0  0  0  0  0  0
    6.0514   54.1667  125.3235 C   0  0  0  0  0  0  0  0  0  0  0  0
    7.3504   54.1622  124.9179 C   0  0  0  0  0  0  0  0  0  0  0  0
   10.0399   52.7063  124.1847 C   0  0  0  0  0  0  0  0  0  0  0  0
    9.5967   53.4296  125.3043 O   0  0  0  0  0  0  0  0  0  0  0  0
    5.1021   54.8480  124.6021 O   0  0  0  0  0  0  0  0  0  0  0  0
    4.5436   54.2812  123.4390 C   0  0  0  0  0  0  0  0  0  0  0  0
    7.7505   54.8344  123.7826 O   0  0  0  0  0  0  0  0  0  0  0  0
    7.7365   54.1876  122.5239 C   0  0  0  0  0  0  0  0  0  0  0  0
 32 33  1  0  0  0
 33 26  1  0  0  0
 26 27  2  0  0  0
 27 28  1  0  0  0
 28 29  2  0  0  0
 29 30  1  0  0  0
 30 34  1  0  0  0
 34 35  1  0  0  0
 30 31  2  0  0  0
 31 36  1  0  0  0
 36 37  1  0  0  0
 28  1  1  0  0  0
  1  2  2  0  0  0
  1  3  1  0  0  0
  3  4  1  0  0  0
  4  5  1  0  0  0
  5  6  1  0  0  0
  6  7  1  0  0  0
  7  8  1  0  0  0
  6  9  1  0  0  0
  9 10  1  0  0  0
 10 11  2  0  0  0
 11 12  1  0  0  0
 12 13  2  0  0  0
 13 14  1  0  0  0
 14 15  2  0  0  0
 15 16  1  0  0  0
 16 19  1  0  0  0
 19 20  1  0  0  0
 20 21  2  0  0  0
 21 22  1  0  0  0
 22 23  2  0  0  0
 23 24  1  0  0  0
 24 25  2  0  0  0
 16 17  1  0  0  0
 17 18  2  0  0  0
 31 26  1  0  0  0
  8  3  1  0  0  0
 17  9  1  0  0  0
 15 10  1  0  0  0
 25 20  1  0  0  0
M  END
> <minimizedAffinity>
16.22740

> <CNNscore>
0.3484348059

> <CNNaffinity>
7.0257978439

> <CNN_VS>
2.4480326176

> <CNNaffinity_variance>
0.3170506060

$$$$
[H]c1c([H])c([H])c(C([H])([H])n2c(=O)n(C3([H])C([H])([H])C([H])([H])N(C(=O)c4c([H])c(OC([H])([H])[H])c(OC([H])([H])[H])c(OC([H])([H])[H])c4[H])C([H])([H])C3([H])[H])c3c([H])c([H])c([H])c([H])c32)c([H])c1[H]


 37 41  0  0  0  0  0  0  0  0999 V2000
    8.1752   50.2594  130.6708 C   0  0  0  0  0  0  0  0  0  0  0  0
    8.7501   51.2200  131.3606 O   0  0  0  0  0  0  0  0  0  0  0  0
    8.7208   48.9665  130.9446 N   0  0  0  0  0  0  0  0  0  0  0  0
    8.2975   47.7402  130.3463 C   0  0  0  0  0  0  0  0  0  0  0  0
    8.9851   46.4711  130.7716 C   0  0  0  0  0  0  0  0  0  0  0  0
    9.6273   46.6262  132.0817 C   0  0  0  0  0  0  0  0  0  0  0  0
   10.6167   47.7924  131.8655 C   0  0  0  0  0  0  0  0  0  0  0  0
    9.8098   49.0244  131.9632 C   0  0  0  0  0  0  0  0  0  0  0  0
   10.2609   45.4769  132.6365 N   0  0  0  0  0  0  0  0  0  0  0  0
   11.3890   45.5373  133.3581 C   0  0  0  0  0  0  0  0  0  0  0  0
   12.2207   46.5719  133.7741 C   0  0  0  0  0  0  0  0  0  0  0  0
   13.3228   46.2624  134.5359 C   0  0  0  0  0  0  0  0  0  0  0  0
   13.6562   44.9804  134.9153 C   0  0  0  0  0  0  0  0  0  0  0  0
   12.8250   43.9696  134.4969 C   0  0  0  0  0  0  0  0  0  0  0  0
   11.7067   44.2459  133.7279 C   0  0  0  0  0  0  0  0  0  0  0  0
   10.7413   43.4448  133.2042 N   0  0  0  0  0  0  0  0  0  0  0  0
    9.8510   44.2122  132.5321 C   0  0  0  0  0  0  0  0  0  0  0  0
    8.8307   43.7747  131.9307 O   0  0  0  0  0  0  0  0  0  0  0  0
   10.6322   42.0172  133.3126 C   0  0  0  0  0  0  0  0  0  0  0  0
   10.5081   41.3949  131.9943 C   0  0  0  0  0  0  0  0  0  0  0  0
   10.0879   42.1279  130.9014 C   0  0  0  0  0  0  0  0  0  0  0  0
    9.9844   41.5134  129.6686 C   0  0  0  0  0  0  0  0  0  0  0  0
   10.2908   40.1830  129.4981 C   0  0  0  0  0  0  0  0  0  0  0  0
   10.7050   39.4749  130.5905 C   0  0  0  0  0  0  0  0  0  0  0  0
   10.8222   40.0532  131.8438 C   0  0  0  0  0  0  0  0  0  0  0  0
    4.9617   50.2940  128.8833 C   0  0  0  0  0  0  0  0  0  0  0  0
    5.9938   49.9159  129.6945 C   0  0  0  0  0  0  0  0  0  0  0  0
    7.1375   50.7155  129.8050 C   0  0  0  0  0  0  0  0  0  0  0  0
    7.1277   51.8610  129.0589 C   0  0  0  0  0  0  0  0  0  0  0  0
    6.0688   52.2356  128.2355 C   0  0  0  0  0  0  0  0  0  0  0  0
    4.9662   51.4435  128.1426 C   0  0  0  0  0  0  0  0  0  0  0  0
    3.8161   48.1902  129.4558 C   0  0  0  0  0  0  0  0  0  0  0  0
    3.8401   49.4417  128.8186 O   0  0  0  0  0  0  0  0  0  0  0  0
    6.1442   53.4058  127.5207 O   0  0  0  0  0  0  0  0  0  0  0  0
    7.3351   54.1589  127.5037 C   0  0  0  0  0  0  0  0  0  0  0  0
    3.9016   51.7862  127.3364 O   0  0  0  0  0  0  0  0  0  0  0  0
    2.5728   51.6201  127.7943 C   0  0  0  0  0  0  0  0  0  0  0  0
 32 33  1  0  0  0
 33 26  1  0  0  0
 26 27  2  0  0  0
 27 28  1  0  0  0
 28 29  2  0  0  0
 29 30  1  0  0  0
 30 34  1  0  0  0
 34 35  1  0  0  0
 30 31  2  0  0  0
 31 36  1  0  0  0
 36 37  1  0  0  0
 28  1  1  0  0  0
  1  2  2  0  0  0
  1  3  1  0  0  0
  3  4  1  0  0  0
  4  5  1  0  0  0
  5  6  1  0  0  0
  6  7  1  0  0  0
  7  8  1  0  0  0
  6  9  1  0  0  0
  9 10  1  0  0  0
 10 11  2  0  0  0
 11 12  1  0  0  0
 12 13  2  0  0  0
 13 14  1  0  0  0
 14 15  2  0  0  0
 15 16  1  0  0  0
 16 19  1  0  0  0
 19 20  1  0  0  0
 20 21  2  0  0  0
 21 22  1  0  0  0
 22 23  2  0  0  0
 23 24  1  0  0  0
 24 25  2  0  0  0
 16 17  1  0  0  0
 17 18  2  0  0  0
 31 26  1  0  0  0
  8  3  1  0  0  0
 17  9  1  0  0  0
 15 10  1  0  0  0
 25 20  1  0  0  0
M  END
> <minimizedAffinity>
32.68543

> <CNNscore>
0.3306342959

> <CNNaffinity>
7.3725562096

> <CNN_VS>
2.4376199245

> <CNNaffinity_variance>
1.1093020439

$$$$
[H]c1c([H])c([H])c(C([H])([H])n2c(=O)n(C3([H])C([H])([H])C([H])([H])N(C(=O)c4c([H])c(OC([H])([H])[H])c(OC([H])([H])[H])c(OC([H])([H])[H])c4[H])C([H])([H])C3([H])[H])c3c([H])c([H])c([H])c([H])c32)c([H])c1[H]


 37 41  0  0  0  0  0  0  0  0999 V2000
    5.8839   50.0040  128.6705 C   0  0  0  0  0  0  0  0  0  0  0  0
    4.8676   49.1713  128.6183 O   0  0  0  0  0  0  0  0  0  0  0  0
    6.9822   49.5034  129.4371 N   0  0  0  0  0  0  0  0  0  0  0  0
    8.2160   50.1854  129.6680 C   0  0  0  0  0  0  0  0  0  0  0  0
    9.2648   49.4907  130.4938 C   0  0  0  0  0  0  0  0  0  0  0  0
    9.0546   48.0387  130.5101 C   0  0  0  0  0  0  0  0  0  0  0  0
    7.6360   47.8836  131.1013 C   0  0  0  0  0  0  0  0  0  0  0  0
    6.7070   48.1426  129.9840 C   0  0  0  0  0  0  0  0  0  0  0  0
   10.0171   47.2491  131.2031 N   0  0  0  0  0  0  0  0  0  0  0  0
   10.2950   47.4060  132.5051 C   0  0  0  0  0  0  0  0  0  0  0  0
    9.8213   48.2509  133.5035 C   0  0  0  0  0  0  0  0  0  0  0  0
   10.3398   48.1250  134.7709 C   0  0  0  0  0  0  0  0  0  0  0  0
   11.3070   47.2060  135.1148 C   0  0  0  0  0  0  0  0  0  0  0  0
   11.7646   46.3786  134.1180 C   0  0  0  0  0  0  0  0  0  0  0  0
   11.2645   46.4788  132.8302 C   0  0  0  0  0  0  0  0  0  0  0  0
   11.5378   45.7891  131.6912 N   0  0  0  0  0  0  0  0  0  0  0  0
   10.7629   46.2696  130.6903 C   0  0  0  0  0  0  0  0  0  0  0  0
   10.7714   45.8421  129.5023 O   0  0  0  0  0  0  0  0  0  0  0  0
   12.4807   44.7200  131.5181 C   0  0  0  0  0  0  0  0  0  0  0  0
   11.8063   43.4225  131.4728 C   0  0  0  0  0  0  0  0  0  0  0  0
   11.2801   42.9382  130.2909 C   0  0  0  0  0  0  0  0  0  0  0  0
   10.6524   41.7077  130.2788 C   0  0  0  0  0  0  0  0  0  0  0  0
   10.5368   40.9460  131.4187 C   0  0  0  0  0  0  0  0  0  0  0  0
   11.0637   41.4416  132.5776 C   0  0  0  0  0  0  0  0  0  0  0  0
   11.7006   42.6705  132.6324 C   0  0  0  0  0  0  0  0  0  0  0  0
    6.6672   53.0767  126.8085 C   0  0  0  0  0  0  0  0  0  0  0  0
    6.8010   51.9075  127.5021 C   0  0  0  0  0  0  0  0  0  0  0  0
    5.6693   51.2183  127.9539 C   0  0  0  0  0  0  0  0  0  0  0  0
    4.4688   51.7976  127.6502 C   0  0  0  0  0  0  0  0  0  0  0  0
    4.3456   52.9903  126.9419 C   0  0  0  0  0  0  0  0  0  0  0  0
    5.4589   53.6442  126.5121 C   0  0  0  0  0  0  0  0  0  0  0  0
    8.3645   54.8457  127.0446 C   0  0  0  0  0  0  0  0  0  0  0  0
    7.8484   53.7191  126.3834 O   0  0  0  0  0  0  0  0  0  0  0  0
    3.0976   53.5004  126.6808 O   0  0  0  0  0  0  0  0  0  0  0  0
    2.0667   52.6638  126.2085 C   0  0  0  0  0  0  0  0  0  0  0  0
    5.3705   54.8269  125.8089 O   0  0  0  0  0  0  0  0  0  0  0  0
    5.3247   54.8183  124.3943 C   0  0  0  0  0  0  0  0  0  0  0  0
 32 33  1  0  0  0
 33 26  1  0  0  0
 26 27  2  0  0  0
 27 28  1  0  0  0
 28 29  2  0  0  0
 29 30  1  0  0  0
 30 34  1  0  0  0
 34 35  1  0  0  0
 30 31  2  0  0  0
 31 36  1  0  0  0
 36 37  1  0  0  0
 28  1  1  0  0  0
  1  2  2  0  0  0
  1  3  1  0  0  0
  3  4  1  0  0  0
  4  5  1  0  0  0
  5  6  1  0  0  0
  6  7  1  0  0  0
  7  8  1  0  0  0
  6  9  1  0  0  0
  9 10  1  0  0  0
 10 11  2  0  0  0
 11 12  1  0  0  0
 12 13  2  0  0  0
 13 14  1  0  0  0
 14 15  2  0  0  0
 15 16  1  0  0  0
 16 19  1  0  0  0
 19 20  1  0  0  0
 20 21  2  0  0  0
 21 22  1  0  0  0
 22 23  2  0  0  0
 23 24  1  0  0  0
 24 25  2  0  0  0
 16 17  1  0  0  0
 17 18  2  0  0  0
 31 26  1  0  0  0
  8  3  1  0  0  0
 17  9  1  0  0  0
 15 10  1  0  0  0
 25 20  1  0  0  0
M  END
> <minimizedAffinity>
26.31640

> <CNNscore>
0.3128266037

> <CNNaffinity>
6.9617309570

> <CNN_VS>
2.1778147221

> <CNNaffinity_variance>
0.9102851152

$$$$
[H]c1c([H])c([H])c(C([H])([H])n2c(=O)n(C3([H])C([H])([H])C([H])([H])N(C(=O)c4c([H])c(OC([H])([H])[H])c(OC([H])([H])[H])c(OC([H])([H])[H])c4[H])C([H])([H])C3([H])[H])c3c([H])c([H])c([H])c([H])c32)c([H])c1[H]


 37 41  0  0  0  0  0  0  0  0999 V2000
    6.9951   49.9129  127.9131 C   0  0  0  0  0  0  0  0  0  0  0  0
    5.8269   49.3583  127.6745 O   0  0  0  0  0  0  0  0  0  0  0  0
    7.8436   49.1060  128.7337 N   0  0  0  0  0  0  0  0  0  0  0  0
    9.1644   49.4490  129.1562 C   0  0  0  0  0  0  0  0  0  0  0  0
    9.9126   48.4622  130.0110 C   0  0  0  0  0  0  0  0  0  0  0  0
    9.3692   47.1075  129.8606 C   0  0  0  0  0  0  0  0  0  0  0  0
    7.8920   47.2594  130.2856 C   0  0  0  0  0  0  0  0  0  0  0  0
    7.1936   47.8169  129.1110 C   0  0  0  0  0  0  0  0  0  0  0  0
   10.0284   46.0595  130.5657 N   0  0  0  0  0  0  0  0  0  0  0  0
    9.8559   44.7611  130.2803 C   0  0  0  0  0  0  0  0  0  0  0  0
    9.1018   44.0660  129.3405 C   0  0  0  0  0  0  0  0  0  0  0  0
    9.1752   42.6929  129.3253 C   0  0  0  0  0  0  0  0  0  0  0  0
    9.9561   41.9581  130.1906 C   0  0  0  0  0  0  0  0  0  0  0  0
   10.6951   42.6589  131.1128 C   0  0  0  0  0  0  0  0  0  0  0  0
   10.6443   44.0424  131.1562 C   0  0  0  0  0  0  0  0  0  0  0  0
   11.2703   44.9519  131.9491 N   0  0  0  0  0  0  0  0  0  0  0  0
   10.8858   46.1961  131.5780 C   0  0  0  0  0  0  0  0  0  0  0  0
   11.2884   47.2657  132.1145 O   0  0  0  0  0  0  0  0  0  0  0  0
   12.1946   44.6952  133.0175 C   0  0  0  0  0  0  0  0  0  0  0  0
   11.5083   44.6394  134.3083 C   0  0  0  0  0  0  0  0  0  0  0  0
   10.4909   45.5242  134.6088 C   0  0  0  0  0  0  0  0  0  0  0  0
    9.8590   45.4442  135.8346 C   0  0  0  0  0  0  0  0  0  0  0  0
   10.2168   44.5010  136.7701 C   0  0  0  0  0  0  0  0  0  0  0  0
   11.2248   43.6346  136.4544 C   0  0  0  0  0  0  0  0  0  0  0  0
   11.8838   43.6812  135.2369 C   0  0  0  0  0  0  0  0  0  0  0  0
    7.6130   52.4105  125.2858 C   0  0  0  0  0  0  0  0  0  0  0  0
    7.4445   51.2194  125.9329 C   0  0  0  0  0  0  0  0  0  0  0  0
    7.1593   51.1918  127.3032 C   0  0  0  0  0  0  0  0  0  0  0  0
    7.0685   52.4139  127.9090 C   0  0  0  0  0  0  0  0  0  0  0  0
    7.2423   53.6217  127.2378 C   0  0  0  0  0  0  0  0  0  0  0  0
    7.5191   53.6259  125.9055 C   0  0  0  0  0  0  0  0  0  0  0  0
    9.1861   52.0865  123.4186 C   0  0  0  0  0  0  0  0  0  0  0  0
    7.8985   52.3656  123.9055 O   0  0  0  0  0  0  0  0  0  0  0  0
    7.1327   54.8046  127.9270 O   0  0  0  0  0  0  0  0  0  0  0  0
    6.5094   54.8421  129.1902 C   0  0  0  0  0  0  0  0  0  0  0  0
    7.6968   54.8045  125.2126 O   0  0  0  0  0  0  0  0  0  0  0  0
    8.5188   54.8423  124.0611 C   0  0  0  0  0  0  0  0  0  0  0  0
 32 33  1  0  0  0
 33 26  1  0  0  0
 26 27  2  0  0  0
 27 28  1  0  0  0
 28 29  2  0  0  0
 29 30  1  0  0  0
 30 34  1  0  0  0
 34 35  1  0  0  0
 30 31  2  0  0  0
 31 36  1  0  0  0
 36 37  1  0  0  0
 28  1  1  0  0  0
  1  2  2  0  0  0
  1  3  1  0  0  0
  3  4  1  0  0  0
  4  5  1  0  0  0
  5  6  1  0  0  0
  6  7  1  0  0  0
  7  8  1  0  0  0
  6  9  1  0  0  0
  9 10  1  0  0  0
 10 11  2  0  0  0
 11 12  1  0  0  0
 12 13  2  0  0  0
 13 14  1  0  0  0
 14 15  2  0  0  0
 15 16  1  0  0  0
 16 19  1  0  0  0
 19 20  1  0  0  0
 20 21  2  0  0  0
 21 22  1  0  0  0
 22 23  2  0  0  0
 23 24  1  0  0  0
 24 25  2  0  0  0
 16 17  1  0  0  0
 17 18  2  0  0  0
 31 26  1  0  0  0
  8  3  1  0  0  0
 17  9  1  0  0  0
 15 10  1  0  0  0
 25 20  1  0  0  0
M  END
> <minimizedAffinity>
27.84277

> <CNNscore>
0.3035011292

> <CNNaffinity>
7.0372610092

> <CNN_VS>
2.1358165741

> <CNNaffinity_variance>
0.3766420484

$$$$
[H]OC(=O)[C@@]([H])(N([H])C(=O)[C@@]([H])(N([H])C(=O)[C@@]([H])(N([H])C(=O)C([H])([H])N([H])C(=O)[C@@]1([H])N(C(=O)[C@@]([H])(N([H])[H])C([H])([H])c2c([H])n([H])c3c([H])c([H])c([H])c([H])c23)C([H])([H])C([H])([H])C1([H])[H])C([H])([H])c1c([H])n([H])c2c([H])c([H])c([H])c([H])c12)C([H])([H])C([H])(C([H])([H])[H])C([H])([H])[H])C([H])([H])c1c([H])c([H])c([H])c([H])c1[H]


 68 73  0  0  0  0  0  0  0  0999 V2000
    6.7630   47.7867  128.7442 C   0  0  0  0  0  0  0  0  0  0  0  0
    6.5066   49.1568  128.3810 N   0  0  0  0  0  0  0  0  0  0  0  0
    7.3407   50.1866  128.8523 C   0  0  0  0  0  0  0  0  0  0  0  0
    8.3279   49.8148  129.6037 O   0  0  0  0  0  0  0  0  0  0  0  0
    5.7064   49.3822  127.7698 H   0  0  0  0  0  0  0  0  0  0  0  0
    7.2574   51.6060  128.6256 C   0  0  0  0  0  0  0  0  0  0  0  0
    7.7986   52.1119  127.3801 N   0  0  0  0  0  0  0  0  0  0  0  0
    7.1381   53.2304  126.8374 C   0  0  0  0  0  0  0  0  0  0  0  0
    6.1351   53.6633  127.5530 O   0  0  0  0  0  0  0  0  0  0  0  0
    8.6248   51.6505  127.0025 H   0  0  0  0  0  0  0  0  0  0  0  0
    7.4409   53.9219  125.6286 C   0  0  0  0  0  0  0  0  0  0  0  0
    8.9362   54.2338  125.4760 C   0  0  0  0  0  0  0  0  0  0  0  0
    8.9091   55.0043  124.1644 C   0  0  0  0  0  0  0  0  0  0  0  0
    7.4452   55.3213  123.8803 C   0  0  0  0  0  0  0  0  0  0  0  0
    6.8763   55.1650  125.2543 N   0  0  0  0  0  0  0  0  0  0  0  0
    6.0444   56.1325  125.8249 C   0  0  0  0  0  0  0  0  0  0  0  0
    5.6580   55.9658  127.0323 O   0  0  0  0  0  0  0  0  0  0  0  0
    5.5331   57.3648  125.1755 C   0  0  0  0  0  0  0  0  0  0  0  0
    6.3298   57.8419  124.0937 N   0  0  0  0  0  0  0  0  0  0  0  0
    7.3053   57.4980  124.0875 H   0  0  0  0  0  0  0  0  0  0  0  0
    6.3625   58.8841  124.0214 H   0  0  0  0  0  0  0  0  0  0  0  0
    4.0872   57.1503  124.7455 C   0  0  0  0  0  0  0  0  0  0  0  0
    3.7113   55.7512  124.4937 C   0  0  0  0  0  0  0  0  0  0  0  0
    4.1431   54.9704  123.4102 C   0  0  0  0  0  0  0  0  0  0  0  0
    3.6292   53.7285  123.5027 N   0  0  0  0  0  0  0  0  0  0  0  0
    2.8655   53.6426  124.6117 C   0  0  0  0  0  0  0  0  0  0  0  0
    2.1265   52.6372  125.1719 C   0  0  0  0  0  0  0  0  0  0  0  0
    1.4304   52.8420  126.3306 C   0  0  0  0  0  0  0  0  0  0  0  0
    1.4561   54.0899  126.9724 C   0  0  0  0  0  0  0  0  0  0  0  0
    2.2100   55.1012  126.3929 C   0  0  0  0  0  0  0  0  0  0  0  0
    2.9116   54.8778  125.2219 C   0  0  0  0  0  0  0  0  0  0  0  0
    3.7720   52.9133  122.8375 H   0  0  0  0  0  0  0  0  0  0  0  0
    8.2042   47.2983  130.7233 N   0  0  0  0  0  0  0  0  0  0  0  0
    6.9491   47.5827  130.2040 C   0  0  0  0  0  0  0  0  0  0  0  0
    5.9317   47.6853  130.9071 O   0  0  0  0  0  0  0  0  0  0  0  0
    8.9824   47.2100  129.9592 H   0  0  0  0  0  0  0  0  0  0  0  0
    8.6775   47.0946  132.0503 C   0  0  0  0  0  0  0  0  0  0  0  0
   10.0409   46.4835  131.9498 C   0  0  0  0  0  0  0  0  0  0  0  0
   10.9325   46.9403  131.1754 O   0  0  0  0  0  0  0  0  0  0  0  0
   10.3554   45.3336  132.7474 N   0  0  0  0  0  0  0  0  0  0  0  0
    9.6555   44.9633  133.4088 H   0  0  0  0  0  0  0  0  0  0  0  0
   11.6738   44.7003  132.6029 C   0  0  0  0  0  0  0  0  0  0  0  0
   11.8405   43.8259  133.7469 C   0  0  0  0  0  0  0  0  0  0  0  0
   10.8360   43.0167  134.2550 O   0  0  0  0  0  0  0  0  0  0  0  0
   12.9772   43.7914  134.3413 O   0  0  0  0  0  0  0  0  0  0  0  0
   10.7924   42.8393  135.2802 H   0  0  0  0  0  0  0  0  0  0  0  0
   12.7678   45.6947  132.4456 C   0  0  0  0  0  0  0  0  0  0  0  0
   12.8431   46.5889  133.6235 C   0  0  0  0  0  0  0  0  0  0  0  0
   11.7517   47.4135  133.8915 C   0  0  0  0  0  0  0  0  0  0  0  0
   11.7300   48.2672  134.9730 C   0  0  0  0  0  0  0  0  0  0  0  0
   12.8288   48.3192  135.8361 C   0  0  0  0  0  0  0  0  0  0  0  0
   13.8907   47.5081  135.5671 C   0  0  0  0  0  0  0  0  0  0  0  0
   13.9009   46.6625  134.4883 C   0  0  0  0  0  0  0  0  0  0  0  0
    7.8821   46.0791  132.8537 C   0  0  0  0  0  0  0  0  0  0  0  0
    8.8789   46.7793  135.0347 C   0  0  0  0  0  0  0  0  0  0  0  0
    7.6074   46.4542  134.2743 C   0  0  0  0  0  0  0  0  0  0  0  0
    6.9685   45.2270  134.9325 C   0  0  0  0  0  0  0  0  0  0  0  0
    8.1236   47.3535  128.1625 C   0  0  0  0  0  0  0  0  0  0  0  0
    8.5647   46.0320  128.6393 C   0  0  0  0  0  0  0  0  0  0  0  0
    7.6676   45.0601  129.1017 C   0  0  0  0  0  0  0  0  0  0  0  0
    8.3463   43.9637  129.4670 N   0  0  0  0  0  0  0  0  0  0  0  0
    9.6615   44.1637  129.2655 C   0  0  0  0  0  0  0  0  0  0  0  0
   10.7641   43.3689  129.4646 C   0  0  0  0  0  0  0  0  0  0  0  0
   12.0072   43.8533  129.1510 C   0  0  0  0  0  0  0  0  0  0  0  0
   12.1277   45.1187  128.6457 C   0  0  0  0  0  0  0  0  0  0  0  0
   11.0370   45.9373  128.4358 C   0  0  0  0  0  0  0  0  0  0  0  0
    9.8040   45.4578  128.7470 C   0  0  0  0  0  0  0  0  0  0  0  0
    7.9462   43.0626  129.8616 H   0  0  0  0  0  0  0  0  0  0  0  0
 55 56  1  0  0  0
 56 57  1  0  0  0
 56 54  1  0  0  0
 54 37  1  0  0  0
 37 33  1  0  0  0
 33 34  1  0  0  0
 34 35  2  0  0  0
 34  1  1  0  0  0
  1 58  1  0  0  0
 58 59  1  0  0  0
 59 60  2  0  0  0
 60 61  1  0  0  0
 61 62  1  0  0  0
 62 63  2  0  0  0
 63 64  1  0  0  0
 64 65  2  0  0  0
 65 66  1  0  0  0
 66 67  2  0  0  0
  1  2  1  0  0  0
  2  3  1  0  0  0
  3  4  2  0  0  0
  3  6  1  0  0  0
  6  7  1  0  0  0
  7  8  1  0  0  0
  8  9  2  0  0  0
  8 11  1  0  0  0
 11 12  1  0  0  0
 12 13  1  0  0  0
 13 14  1  0  0  0
 14 15  1  0  0  0
 15 16  1  0  0  0
 16 17  2  0  0  0
 16 18  1  0  0  0
 18 19  1  0  0  0
 18 22  1  0  0  0
 22 23  1  0  0  0
 23 24  2  0  0  0
 24 25  1  0  0  0
 25 26  1  0  0  0
 26 27  2  0  0  0
 27 28  1  0  0  0
 28 29  2  0  0  0
 29 30  1  0  0  0
 30 31  2  0  0  0
 37 38  1  0  0  0
 38 39  2  0  0  0
 38 40  1  0  0  0
 40 42  1  0  0  0
 42 47  1  0  0  0
 47 48  1  0  0  0
 48 49  2  0  0  0
 49 50  1  0  0  0
 50 51  2  0  0  0
 51 52  1  0  0  0
 52 53  2  0  0  0
 42 43  1  0  0  0
 43 44  1  0  0  0
 43 45  2  0  0  0
 67 59  1  0  0  0
 15 11  1  0  0  0
 31 23  1  0  0  0
 53 48  1  0  0  0
 67 62  1  0  0  0
 31 26  1  0  0  0
 33 36  1  0  0  0
 61 68  1  0  0  0
  2  5  1  0  0  0
  7 10  1  0  0  0
 19 20  1  0  0  0
 19 21  1  0  0  0
 25 32  1  0  0  0
 40 41  1  0  0  0
 44 46  1  0  0  0
M  END
> <minimizedAffinity>
7.55053

> <CNNscore>
0.3403849006

> <CNNaffinity>
7.9072594643

> <CNN_VS>
2.6915116310

> <CNNaffinity_variance>
0.2279043198

$$$$
[H]OC(=O)[C@@]([H])(N([H])C(=O)[C@@]([H])(N([H])C(=O)[C@@]([H])(N([H])C(=O)C([H])([H])N([H])C(=O)[C@@]1([H])N(C(=O)[C@@]([H])(N([H])[H])C([H])([H])c2c([H])n([H])c3c([H])c([H])c([H])c([H])c23)C([H])([H])C([H])([H])C1([H])[H])C([H])([H])c1c([H])n([H])c2c([H])c([H])c([H])c([H])c12)C([H])([H])C([H])(C([H])([H])[H])C([H])([H])[H])C([H])([H])c1c([H])c([H])c([H])c([H])c1[H]


 68 73  0  0  0  0  0  0  0  0999 V2000
    7.5046   49.2916  130.3282 C   0  0  0  0  0  0  0  0  0  0  0  0
    7.8394   49.9165  129.0744 N   0  0  0  0  0  0  0  0  0  0  0  0
    7.2802   51.1592  128.7262 C   0  0  0  0  0  0  0  0  0  0  0  0
    6.4769   51.6813  129.5978 O   0  0  0  0  0  0  0  0  0  0  0  0
    8.4951   49.4488  128.4293 H   0  0  0  0  0  0  0  0  0  0  0  0
    7.4657   51.9426  127.5325 C   0  0  0  0  0  0  0  0  0  0  0  0
    7.0555   53.3318  127.5801 N   0  0  0  0  0  0  0  0  0  0  0  0
    7.4973   54.1354  126.5122 C   0  0  0  0  0  0  0  0  0  0  0  0
    8.2044   53.5002  125.6166 O   0  0  0  0  0  0  0  0  0  0  0  0
    6.4602   53.6218  128.3545 H   0  0  0  0  0  0  0  0  0  0  0  0
    7.2588   55.5257  126.3086 C   0  0  0  0  0  0  0  0  0  0  0  0
    7.7862   56.3978  127.4565 C   0  0  0  0  0  0  0  0  0  0  0  0
    7.3281   57.7665  126.9755 C   0  0  0  0  0  0  0  0  0  0  0  0
    6.3547   57.5175  125.8289 C   0  0  0  0  0  0  0  0  0  0  0  0
    5.9789   56.0984  126.1136 N   0  0  0  0  0  0  0  0  0  0  0  0
    4.6461   55.6788  126.1481 C   0  0  0  0  0  0  0  0  0  0  0  0
    4.3989   54.4671  126.4732 O   0  0  0  0  0  0  0  0  0  0  0  0
    3.4459   56.4934  125.8357 C   0  0  0  0  0  0  0  0  0  0  0  0
    3.4833   57.8262  126.3408 N   0  0  0  0  0  0  0  0  0  0  0  0
    4.1500   57.9785  127.1167 H   0  0  0  0  0  0  0  0  0  0  0  0
    2.5521   58.1865  126.6500 H   0  0  0  0  0  0  0  0  0  0  0  0
    3.1982   56.4779  124.3324 C   0  0  0  0  0  0  0  0  0  0  0  0
    3.7888   55.3392  123.6137 C   0  0  0  0  0  0  0  0  0  0  0  0
    3.1001   54.1904  123.1943 C   0  0  0  0  0  0  0  0  0  0  0  0
    3.9390   53.3617  122.5427 N   0  0  0  0  0  0  0  0  0  0  0  0
    5.1709   53.9110  122.5066 C   0  0  0  0  0  0  0  0  0  0  0  0
    6.3685   53.5064  121.9845 C   0  0  0  0  0  0  0  0  0  0  0  0
    7.4843   54.2872  122.1048 C   0  0  0  0  0  0  0  0  0  0  0  0
    7.4277   55.5226  122.7686 C   0  0  0  0  0  0  0  0  0  0  0  0
    6.2060   55.9207  123.2936 C   0  0  0  0  0  0  0  0  0  0  0  0
    5.0851   55.1211  123.1611 C   0  0  0  0  0  0  0  0  0  0  0  0
    3.7162   52.4186  122.1087 H   0  0  0  0  0  0  0  0  0  0  0  0
    8.8937   48.3122  132.1567 N   0  0  0  0  0  0  0  0  0  0  0  0
    8.5773   49.3967  131.3508 C   0  0  0  0  0  0  0  0  0  0  0  0
    9.1566   50.4914  131.4287 O   0  0  0  0  0  0  0  0  0  0  0  0
    8.2615   47.4373  131.9783 H   0  0  0  0  0  0  0  0  0  0  0  0
    9.8731   48.1150  133.1707 C   0  0  0  0  0  0  0  0  0  0  0  0
   10.6341   46.8733  132.8220 C   0  0  0  0  0  0  0  0  0  0  0  0
   10.2021   46.0268  131.9853 O   0  0  0  0  0  0  0  0  0  0  0  0
   11.8935   46.6193  133.4598 N   0  0  0  0  0  0  0  0  0  0  0  0
   12.2803   47.3103  134.1209 H   0  0  0  0  0  0  0  0  0  0  0  0
   12.6095   45.3712  133.1599 C   0  0  0  0  0  0  0  0  0  0  0  0
   12.5585   45.2002  131.7214 C   0  0  0  0  0  0  0  0  0  0  0  0
   11.8466   46.0297  130.8686 O   0  0  0  0  0  0  0  0  0  0  0  0
   13.1991   44.2241  131.1893 O   0  0  0  0  0  0  0  0  0  0  0  0
   11.4080   45.6281  130.0137 H   0  0  0  0  0  0  0  0  0  0  0  0
   12.0725   44.2114  133.9195 C   0  0  0  0  0  0  0  0  0  0  0  0
   11.0212   43.5130  133.1453 C   0  0  0  0  0  0  0  0  0  0  0  0
   11.4216   42.6365  132.1382 C   0  0  0  0  0  0  0  0  0  0  0  0
   10.5122   41.9346  131.3770 C   0  0  0  0  0  0  0  0  0  0  0  0
    9.1431   42.0967  131.6101 C   0  0  0  0  0  0  0  0  0  0  0  0
    8.7609   42.9546  132.5979 C   0  0  0  0  0  0  0  0  0  0  0  0
    9.6747   43.6472  133.3490 C   0  0  0  0  0  0  0  0  0  0  0  0
    9.3031   47.8174  134.5477 C   0  0  0  0  0  0  0  0  0  0  0  0
    7.7591   45.8761  134.8444 C   0  0  0  0  0  0  0  0  0  0  0  0
    9.1925   46.3689  134.8998 C   0  0  0  0  0  0  0  0  0  0  0  0
    9.6788   46.2346  136.3465 C   0  0  0  0  0  0  0  0  0  0  0  0
    7.3796   47.7692  130.1193 C   0  0  0  0  0  0  0  0  0  0  0  0
    8.5490   47.1773  129.4480 C   0  0  0  0  0  0  0  0  0  0  0  0
    9.6316   47.9472  129.0027 C   0  0  0  0  0  0  0  0  0  0  0  0
   10.5448   47.1473  128.4350 N   0  0  0  0  0  0  0  0  0  0  0  0
   10.1162   45.8729  128.4848 C   0  0  0  0  0  0  0  0  0  0  0  0
   10.6678   44.6890  128.0589 C   0  0  0  0  0  0  0  0  0  0  0  0
    9.9840   43.5183  128.2594 C   0  0  0  0  0  0  0  0  0  0  0  0
    8.7653   43.5497  128.8798 C   0  0  0  0  0  0  0  0  0  0  0  0
    8.1891   44.7244  129.3175 C   0  0  0  0  0  0  0  0  0  0  0  0
    8.8664   45.8858  129.1184 C   0  0  0  0  0  0  0  0  0  0  0  0
   11.4694   47.4360  127.9997 H   0  0  0  0  0  0  0  0  0  0  0  0
 55 56  1  0  0  0
 56 57  1  0  0  0
 56 54  1  0  0  0
 54 37  1  0  0  0
 37 33  1  0  0  0
 33 34  1  0  0  0
 34 35  2  0  0  0
 34  1  1  0  0  0
  1 58  1  0  0  0
 58 59  1  0  0  0
 59 60  2  0  0  0
 60 61  1  0  0  0
 61 62  1  0  0  0
 62 63  2  0  0  0
 63 64  1  0  0  0
 64 65  2  0  0  0
 65 66  1  0  0  0
 66 67  2  0  0  0
  1  2  1  0  0  0
  2  3  1  0  0  0
  3  4  2  0  0  0
  3  6  1  0  0  0
  6  7  1  0  0  0
  7  8  1  0  0  0
  8  9  2  0  0  0
  8 11  1  0  0  0
 11 12  1  0  0  0
 12 13  1  0  0  0
 13 14  1  0  0  0
 14 15  1  0  0  0
 15 16  1  0  0  0
 16 17  2  0  0  0
 16 18  1  0  0  0
 18 19  1  0  0  0
 18 22  1  0  0  0
 22 23  1  0  0  0
 23 24  2  0  0  0
 24 25  1  0  0  0
 25 26  1  0  0  0
 26 27  2  0  0  0
 27 28  1  0  0  0
 28 29  2  0  0  0
 29 30  1  0  0  0
 30 31  2  0  0  0
 37 38  1  0  0  0
 38 39  2  0  0  0
 38 40  1  0  0  0
 40 42  1  0  0  0
 42 47  1  0  0  0
 47 48  1  0  0  0
 48 49  2  0  0  0
 49 50  1  0  0  0
 50 51  2  0  0  0
 51 52  1  0  0  0
 52 53  2  0  0  0
 42 43  1  0  0  0
 43 44  1  0  0  0
 43 45  2  0  0  0
 67 59  1  0  0  0
 15 11  1  0  0  0
 31 23  1  0  0  0
 53 48  1  0  0  0
 67 62  1  0  0  0
 31 26  1  0  0  0
 33 36  1  0  0  0
 61 68  1  0  0  0
  2  5  1  0  0  0
  7 10  1  0  0  0
 19 20  1  0  0  0
 19 21  1  0  0  0
 25 32  1  0  0  0
 40 41  1  0  0  0
 44 46  1  0  0  0
M  END
> <minimizedAffinity>
-1.20827

> <CNNscore>
0.3397050798

> <CNNaffinity>
8.1611719131

> <CNN_VS>
2.7723915577

> <CNNaffinity_variance>
0.1182829142

$$$$
[H]OC(=O)[C@@]([H])(N([H])C(=O)[C@@]([H])(N([H])C(=O)[C@@]([H])(N([H])C(=O)C([H])([H])N([H])C(=O)[C@@]1([H])N(C(=O)[C@@]([H])(N([H])[H])C([H])([H])c2c([H])n([H])c3c([H])c([H])c([H])c([H])c23)C([H])([H])C([H])([H])C1([H])[H])C([H])([H])c1c([H])n([H])c2c([H])c([H])c([H])c([H])c12)C([H])([H])C([H])(C([H])([H])[H])C([H])([H])[H])C([H])([H])c1c([H])c([H])c([H])c([H])c1[H]


 68 73  0  0  0  0  0  0  0  0999 V2000
    7.1606   47.6898  130.1425 C   0  0  0  0  0  0  0  0  0  0  0  0
    7.3893   48.4383  128.9333 N   0  0  0  0  0  0  0  0  0  0  0  0
    7.1050   49.8148  128.8832 C   0  0  0  0  0  0  0  0  0  0  0  0
    6.6471   50.3373  129.9763 O   0  0  0  0  0  0  0  0  0  0  0  0
    7.7657   47.9602  128.0999 H   0  0  0  0  0  0  0  0  0  0  0  0
    7.2441   50.7375  127.7866 C   0  0  0  0  0  0  0  0  0  0  0  0
    7.0987   52.1483  128.0840 N   0  0  0  0  0  0  0  0  0  0  0  0
    7.4217   53.0296  127.0349 C   0  0  0  0  0  0  0  0  0  0  0  0
    7.7917   52.4393  125.9302 O   0  0  0  0  0  0  0  0  0  0  0  0
    6.7500   52.4026  129.0070 H   0  0  0  0  0  0  0  0  0  0  0  0
    7.3853   54.4542  127.0485 C   0  0  0  0  0  0  0  0  0  0  0  0
    5.9630   55.0153  127.1858 C   0  0  0  0  0  0  0  0  0  0  0  0
    6.2614   56.5048  127.1027 C   0  0  0  0  0  0  0  0  0  0  0  0
    7.7038   56.6300  126.6250 C   0  0  0  0  0  0  0  0  0  0  0  0
    7.8912   55.2780  126.0143 N   0  0  0  0  0  0  0  0  0  0  0  0
    8.4260   55.1125  124.7336 C   0  0  0  0  0  0  0  0  0  0  0  0
    8.4855   53.9312  124.2480 O   0  0  0  0  0  0  0  0  0  0  0  0
    8.9570   56.1751  123.8443 C   0  0  0  0  0  0  0  0  0  0  0  0
   10.1849   55.8506  123.1966 N   0  0  0  0  0  0  0  0  0  0  0  0
   10.7254   55.0912  123.6449 H   0  0  0  0  0  0  0  0  0  0  0  0
   10.8272   56.6664  123.0767 H   0  0  0  0  0  0  0  0  0  0  0  0
    7.8876   56.5749  122.8353 C   0  0  0  0  0  0  0  0  0  0  0  0
    6.9520   55.5047  122.4596 C   0  0  0  0  0  0  0  0  0  0  0  0
    7.1512   54.5663  121.4350 C   0  0  0  0  0  0  0  0  0  0  0  0
    6.1089   53.7143  121.3808 N   0  0  0  0  0  0  0  0  0  0  0  0
    5.2123   54.0440  122.3337 C   0  0  0  0  0  0  0  0  0  0  0  0
    4.0037   53.5265  122.7103 C   0  0  0  0  0  0  0  0  0  0  0  0
    3.2929   54.0834  123.7368 C   0  0  0  0  0  0  0  0  0  0  0  0
    3.7861   55.2010  124.4280 C   0  0  0  0  0  0  0  0  0  0  0  0
    5.0138   55.7159  124.0352 C   0  0  0  0  0  0  0  0  0  0  0  0
    5.7228   55.1394  122.9967 C   0  0  0  0  0  0  0  0  0  0  0  0
    5.9682   52.8989  120.7154 H   0  0  0  0  0  0  0  0  0  0  0  0
    9.5180   47.7927  130.9577 N   0  0  0  0  0  0  0  0  0  0  0  0
    8.1626   47.9570  131.2064 C   0  0  0  0  0  0  0  0  0  0  0  0
    7.7146   48.3305  132.3017 O   0  0  0  0  0  0  0  0  0  0  0  0
    9.7349   47.4248  129.9504 H   0  0  0  0  0  0  0  0  0  0  0  0
   10.6790   48.0032  131.7540 C   0  0  0  0  0  0  0  0  0  0  0  0
   11.1174   46.6664  132.2675 C   0  0  0  0  0  0  0  0  0  0  0  0
   12.2366   46.4921  132.8333 O   0  0  0  0  0  0  0  0  0  0  0  0
   10.2505   45.5347  132.1090 N   0  0  0  0  0  0  0  0  0  0  0  0
    9.3207   45.6592  131.6797 H   0  0  0  0  0  0  0  0  0  0  0  0
   10.7082   44.2130  132.5603 C   0  0  0  0  0  0  0  0  0  0  0  0
    9.9928   43.2340  131.7662 C   0  0  0  0  0  0  0  0  0  0  0  0
    8.6103   43.1547  131.6974 O   0  0  0  0  0  0  0  0  0  0  0  0
   10.6630   42.3775  131.0854 O   0  0  0  0  0  0  0  0  0  0  0  0
    8.1568   42.2233  131.5912 H   0  0  0  0  0  0  0  0  0  0  0  0
   10.5481   44.0263  134.0266 C   0  0  0  0  0  0  0  0  0  0  0  0
    9.7925   45.1511  134.6237 C   0  0  0  0  0  0  0  0  0  0  0  0
    8.4426   45.2787  134.3009 C   0  0  0  0  0  0  0  0  0  0  0  0
    7.6599   46.2870  134.8204 C   0  0  0  0  0  0  0  0  0  0  0  0
    8.2231   47.2178  135.6987 C   0  0  0  0  0  0  0  0  0  0  0  0
    9.5434   47.0840  136.0099 C   0  0  0  0  0  0  0  0  0  0  0  0
   10.3121   46.0767  135.4872 C   0  0  0  0  0  0  0  0  0  0  0  0
   10.4389   48.8162  133.0153 C   0  0  0  0  0  0  0  0  0  0  0  0
    9.6557   50.9799  133.9876 C   0  0  0  0  0  0  0  0  0  0  0  0
   10.3383   50.2946  132.8193 C   0  0  0  0  0  0  0  0  0  0  0  0
    9.4689   50.5105  131.5762 C   0  0  0  0  0  0  0  0  0  0  0  0
    7.3594   46.1881  129.8553 C   0  0  0  0  0  0  0  0  0  0  0  0
    8.6354   45.8892  129.1840 C   0  0  0  0  0  0  0  0  0  0  0  0
    9.5893   46.8769  128.9052 C   0  0  0  0  0  0  0  0  0  0  0  0
   10.6442   46.3193  128.2949 N   0  0  0  0  0  0  0  0  0  0  0  0
   10.4338   44.9976  128.1562 C   0  0  0  0  0  0  0  0  0  0  0  0
   11.1915   43.9871  127.6159 C   0  0  0  0  0  0  0  0  0  0  0  0
   10.7068   42.7052  127.6248 C   0  0  0  0  0  0  0  0  0  0  0  0
    9.4780   42.4551  128.1712 C   0  0  0  0  0  0  0  0  0  0  0  0
    8.6971   43.4511  128.7205 C   0  0  0  0  0  0  0  0  0  0  0  0
    9.1769   44.7227  128.7116 C   0  0  0  0  0  0  0  0  0  0  0  0
   11.5227   46.8097  127.9553 H   0  0  0  0  0  0  0  0  0  0  0  0
 55 56  1  0  0  0
 56 57  1  0  0  0
 56 54  1  0  0  0
 54 37  1  0  0  0
 37 33  1  0  0  0
 33 34  1  0  0  0
 34 35  2  0  0  0
 34  1  1  0  0  0
  1 58  1  0  0  0
 58 59  1  0  0  0
 59 60  2  0  0  0
 60 61  1  0  0  0
 61 62  1  0  0  0
 62 63  2  0  0  0
 63 64  1  0  0  0
 64 65  2  0  0  0
 65 66  1  0  0  0
 66 67  2  0  0  0
  1  2  1  0  0  0
  2  3  1  0  0  0
  3  4  2  0  0  0
  3  6  1  0  0  0
  6  7  1  0  0  0
  7  8  1  0  0  0
  8  9  2  0  0  0
  8 11  1  0  0  0
 11 12  1  0  0  0
 12 13  1  0  0  0
 13 14  1  0  0  0
 14 15  1  0  0  0
 15 16  1  0  0  0
 16 17  2  0  0  0
 16 18  1  0  0  0
 18 19  1  0  0  0
 18 22  1  0  0  0
 22 23  1  0  0  0
 23 24  2  0  0  0
 24 25  1  0  0  0
 25 26  1  0  0  0
 26 27  2  0  0  0
 27 28  1  0  0  0
 28 29  2  0  0  0
 29 30  1  0  0  0
 30 31  2  0  0  0
 37 38  1  0  0  0
 38 39  2  0  0  0
 38 40  1  0  0  0
 40 42  1  0  0  0
 42 47  1  0  0  0
 47 48  1  0  0  0
 48 49  2  0  0  0
 49 50  1  0  0  0
 50 51  2  0  0  0
 51 52  1  0  0  0
 52 53  2  0  0  0
 42 43  1  0  0  0
 43 44  1  0  0  0
 43 45  2  0  0  0
 67 59  1  0  0  0
 15 11  1  0  0  0
 31 23  1  0  0  0
 53 48  1  0  0  0
 67 62  1  0  0  0
 31 26  1  0  0  0
 33 36  1  0  0  0
 61 68  1  0  0  0
  2  5  1  0  0  0
  7 10  1  0  0  0
 19 20  1  0  0  0
 19 21  1  0  0  0
 25 32  1  0  0  0
 40 41  1  0  0  0
 44 46  1  0  0  0
M  END
> <minimizedAffinity>
5.07132

> <CNNscore>
0.3307405412

> <CNNaffinity>
7.8275728226

> <CNN_VS>
2.5888955593

> <CNNaffinity_variance>
0.2688289285

$$$$
[H]OC(=O)[C@@]([H])(N([H])C(=O)[C@@]([H])(N([H])C(=O)[C@@]([H])(N([H])C(=O)C([H])([H])N([H])C(=O)[C@@]1([H])N(C(=O)[C@@]([H])(N([H])[H])C([H])([H])c2c([H])n([H])c3c([H])c([H])c([H])c([H])c23)C([H])([H])C([H])([H])C1([H])[H])C([H])([H])c1c([H])n([H])c2c([H])c([H])c([H])c([H])c12)C([H])([H])C([H])(C([H])([H])[H])C([H])([H])[H])C([H])([H])c1c([H])c([H])c([H])c([H])c1[H]


 68 73  0  0  0  0  0  0  0  0999 V2000
    8.1754   43.3753  131.2675 C   0  0  0  0  0  0  0  0  0  0  0  0
    8.5106   44.7044  130.8252 N   0  0  0  0  0  0  0  0  0  0  0  0
    8.5173   45.0184  129.4543 C   0  0  0  0  0  0  0  0  0  0  0  0
    8.1992   44.0527  128.6520 O   0  0  0  0  0  0  0  0  0  0  0  0
    8.7456   45.4301  131.5202 H   0  0  0  0  0  0  0  0  0  0  0  0
    8.8323   46.2635  128.8033 C   0  0  0  0  0  0  0  0  0  0  0  0
    7.7444   47.1986  128.5978 N   0  0  0  0  0  0  0  0  0  0  0  0
    7.1500   47.7097  129.7670 C   0  0  0  0  0  0  0  0  0  0  0  0
    7.6838   47.2753  130.8769 O   0  0  0  0  0  0  0  0  0  0  0  0
    7.5064   47.4420  127.6374 H   0  0  0  0  0  0  0  0  0  0  0  0
    6.0631   48.6262  129.8652 C   0  0  0  0  0  0  0  0  0  0  0  0
    4.7819   48.1092  129.1960 C   0  0  0  0  0  0  0  0  0  0  0  0
    3.8716   49.3085  129.4144 C   0  0  0  0  0  0  0  0  0  0  0  0
    4.7686   50.4536  129.8710 C   0  0  0  0  0  0  0  0  0  0  0  0
    6.0909   49.9563  129.3809 N   0  0  0  0  0  0  0  0  0  0  0  0
    6.9561   50.7645  128.6381 C   0  0  0  0  0  0  0  0  0  0  0  0
    8.0353   50.2467  128.1885 O   0  0  0  0  0  0  0  0  0  0  0  0
    6.7712   52.1984  128.3042 C   0  0  0  0  0  0  0  0  0  0  0  0
    7.0577   53.0997  129.3712 N   0  0  0  0  0  0  0  0  0  0  0  0
    7.0389   52.6763  130.3147 H   0  0  0  0  0  0  0  0  0  0  0  0
    6.4378   53.9411  129.3907 H   0  0  0  0  0  0  0  0  0  0  0  0
    7.5811   52.5391  127.0594 C   0  0  0  0  0  0  0  0  0  0  0  0
    7.3522   53.8853  126.5143 C   0  0  0  0  0  0  0  0  0  0  0  0
    6.6516   54.9191  127.1550 C   0  0  0  0  0  0  0  0  0  0  0  0
    6.6552   56.0249  126.3853 N   0  0  0  0  0  0  0  0  0  0  0  0
    7.3345   55.7745  125.2467 C   0  0  0  0  0  0  0  0  0  0  0  0
    7.6352   56.5253  124.1438 C   0  0  0  0  0  0  0  0  0  0  0  0
    8.3552   55.9940  123.1102 C   0  0  0  0  0  0  0  0  0  0  0  0
    8.8019   54.6643  123.1555 C   0  0  0  0  0  0  0  0  0  0  0  0
    8.4896   53.9137  124.2806 C   0  0  0  0  0  0  0  0  0  0  0  0
    7.7629   54.4663  125.3199 C   0  0  0  0  0  0  0  0  0  0  0  0
    6.2107   56.9660  126.5954 H   0  0  0  0  0  0  0  0  0  0  0  0
    9.6289   43.6446  133.2793 N   0  0  0  0  0  0  0  0  0  0  0  0
    8.4758   43.1317  132.7020 C   0  0  0  0  0  0  0  0  0  0  0  0
    7.6441   42.4589  133.3309 O   0  0  0  0  0  0  0  0  0  0  0  0
   10.2672   44.1839  132.5731 H   0  0  0  0  0  0  0  0  0  0  0  0
   10.1465   43.6037  134.6047 C   0  0  0  0  0  0  0  0  0  0  0  0
    9.9453   44.9607  135.2053 C   0  0  0  0  0  0  0  0  0  0  0  0
    9.7785   45.1330  136.4486 O   0  0  0  0  0  0  0  0  0  0  0  0
    9.9294   46.1118  134.3497 N   0  0  0  0  0  0  0  0  0  0  0  0
   10.0949   45.9989  133.3377 H   0  0  0  0  0  0  0  0  0  0  0  0
    9.6726   47.4355  134.9345 C   0  0  0  0  0  0  0  0  0  0  0  0
    8.2826   47.7450  134.6636 C   0  0  0  0  0  0  0  0  0  0  0  0
    7.5802   47.2578  133.5721 O   0  0  0  0  0  0  0  0  0  0  0  0
    7.6511   48.5199  135.4680 O   0  0  0  0  0  0  0  0  0  0  0  0
    6.8486   47.8519  133.1290 H   0  0  0  0  0  0  0  0  0  0  0  0
   10.6221   48.4682  134.4424 C   0  0  0  0  0  0  0  0  0  0  0  0
   10.3711   48.7814  133.0172 C   0  0  0  0  0  0  0  0  0  0  0  0
    9.6354   49.9268  132.7173 C   0  0  0  0  0  0  0  0  0  0  0  0
    9.3654   50.3019  131.4191 C   0  0  0  0  0  0  0  0  0  0  0  0
    9.8367   49.5197  130.3602 C   0  0  0  0  0  0  0  0  0  0  0  0
   10.5565   48.4025  130.6630 C   0  0  0  0  0  0  0  0  0  0  0  0
   10.8192   48.0394  131.9584 C   0  0  0  0  0  0  0  0  0  0  0  0
   11.6485   43.3883  134.6879 C   0  0  0  0  0  0  0  0  0  0  0  0
   12.4511   45.2555  133.2353 C   0  0  0  0  0  0  0  0  0  0  0  0
   12.4819   44.6271  134.6155 C   0  0  0  0  0  0  0  0  0  0  0  0
   13.9244   44.1983  134.9032 C   0  0  0  0  0  0  0  0  0  0  0  0
    9.0845   42.3572  130.5504 C   0  0  0  0  0  0  0  0  0  0  0  0
   10.5183   42.5846  130.7968 C   0  0  0  0  0  0  0  0  0  0  0  0
   11.2218   41.9250  131.8133 C   0  0  0  0  0  0  0  0  0  0  0  0
   12.5010   42.3243  131.8026 N   0  0  0  0  0  0  0  0  0  0  0  0
   12.6809   43.2236  130.8180 C   0  0  0  0  0  0  0  0  0  0  0  0
   13.7828   43.9203  130.3850 C   0  0  0  0  0  0  0  0  0  0  0  0
   13.6600   44.7815  129.3260 C   0  0  0  0  0  0  0  0  0  0  0  0
   12.4431   44.9318  128.7196 C   0  0  0  0  0  0  0  0  0  0  0  0
   11.3211   44.2442  129.1342 C   0  0  0  0  0  0  0  0  0  0  0  0
   11.4420   43.3904  130.1847 C   0  0  0  0  0  0  0  0  0  0  0  0
   13.2778   42.0083  132.4541 H   0  0  0  0  0  0  0  0  0  0  0  0
 55 56  1  0  0  0
 56 57  1  0  0  0
 56 54  1  0  0  0
 54 37  1  0  0  0
 37 33  1  0  0  0
 33 34  1  0  0  0
 34 35  2  0  0  0
 34  1  1  0  0  0
  1 58  1  0  0  0
 58 59  1  0  0  0
 59 60  2  0  0  0
 60 61  1  0  0  0
 61 62  1  0  0  0
 62 63  2  0  0  0
 63 64  1  0  0  0
 64 65  2  0  0  0
 65 66  1  0  0  0
 66 67  2  0  0  0
  1  2  1  0  0  0
  2  3  1  0  0  0
  3  4  2  0  0  0
  3  6  1  0  0  0
  6  7  1  0  0  0
  7  8  1  0  0  0
  8  9  2  0  0  0
  8 11  1  0  0  0
 11 12  1  0  0  0
 12 13  1  0  0  0
 13 14  1  0  0  0
 14 15  1  0  0  0
 15 16  1  0  0  0
 16 17  2  0  0  0
 16 18  1  0  0  0
 18 19  1  0  0  0
 18 22  1  0  0  0
 22 23  1  0  0  0
 23 24  2  0  0  0
 24 25  1  0  0  0
 25 26  1  0  0  0
 26 27  2  0  0  0
 27 28  1  0  0  0
 28 29  2  0  0  0
 29 30  1  0  0  0
 30 31  2  0  0  0
 37 38  1  0  0  0
 38 39  2  0  0  0
 38 40  1  0  0  0
 40 42  1  0  0  0
 42 47  1  0  0  0
 47 48  1  0  0  0
 48 49  2  0  0  0
 49 50  1  0  0  0
 50 51  2  0  0  0
 51 52  1  0  0  0
 52 53  2  0  0  0
 42 43  1  0  0  0
 43 44  1  0  0  0
 43 45  2  0  0  0
 67 59  1  0  0  0
 15 11  1  0  0  0
 31 23  1  0  0  0
 53 48  1  0  0  0
 67 62  1  0  0  0
 31 26  1  0  0  0
 33 36  1  0  0  0
 61 68  1  0  0  0
  2  5  1  0  0  0
  7 10  1  0  0  0
 19 20  1  0  0  0
 19 21  1  0  0  0
 25 32  1  0  0  0
 40 41  1  0  0  0
 44 46  1  0  0  0
M  END
> <minimizedAffinity>
8.23265

> <CNNscore>
0.3244890571

> <CNNaffinity>
7.9870023727

> <CNN_VS>
2.5916948318

> <CNNaffinity_variance>
0.2354986966

$$$$
[H]OC(=O)[C@@]([H])(N([H])C(=O)[C@@]([H])(N([H])C(=O)[C@@]([H])(N([H])C(=O)C([H])([H])N([H])C(=O)[C@@]1([H])N(C(=O)[C@@]([H])(N([H])[H])C([H])([H])c2c([H])n([H])c3c([H])c([H])c([H])c([H])c23)C([H])([H])C([H])([H])C1([H])[H])C([H])([H])c1c([H])n([H])c2c([H])c([H])c([H])c([H])c12)C([H])([H])C([H])(C([H])([H])[H])C([H])([H])[H])C([H])([H])c1c([H])c([H])c([H])c([H])c1[H]


 68 73  0  0  0  0  0  0  0  0999 V2000
    6.7767   48.1567  130.4234 C   0  0  0  0  0  0  0  0  0  0  0  0
    7.0962   48.8269  129.1892 N   0  0  0  0  0  0  0  0  0  0  0  0
    6.9403   50.2199  129.0741 C   0  0  0  0  0  0  0  0  0  0  0  0
    6.5113   50.8298  130.1331 O   0  0  0  0  0  0  0  0  0  0  0  0
    7.4431   48.2801  128.3857 H   0  0  0  0  0  0  0  0  0  0  0  0
    7.1844   51.0766  127.9429 C   0  0  0  0  0  0  0  0  0  0  0  0
    7.0123   52.5019  128.1405 N   0  0  0  0  0  0  0  0  0  0  0  0
    7.4315   53.3207  127.0749 C   0  0  0  0  0  0  0  0  0  0  0  0
    7.9023   52.6676  126.0466 O   0  0  0  0  0  0  0  0  0  0  0  0
    6.5795   52.8089  129.0103 H   0  0  0  0  0  0  0  0  0  0  0  0
    7.3942   54.7434  126.9997 C   0  0  0  0  0  0  0  0  0  0  0  0
    5.9730   55.3118  127.1162 C   0  0  0  0  0  0  0  0  0  0  0  0
    6.2695   56.7933  126.9370 C   0  0  0  0  0  0  0  0  0  0  0  0
    7.7068   56.8885  126.4377 C   0  0  0  0  0  0  0  0  0  0  0  0
    7.8890   55.5009  125.9109 N   0  0  0  0  0  0  0  0  0  0  0  0
    8.4108   55.2556  124.6376 C   0  0  0  0  0  0  0  0  0  0  0  0
    8.4661   54.0462  124.2263 O   0  0  0  0  0  0  0  0  0  0  0  0
    8.9320   56.2606  123.6783 C   0  0  0  0  0  0  0  0  0  0  0  0
   10.1953   55.9352  123.1032 N   0  0  0  0  0  0  0  0  0  0  0  0
   10.7485   55.2407  123.6337 H   0  0  0  0  0  0  0  0  0  0  0  0
   10.8086   56.7647  122.9350 H   0  0  0  0  0  0  0  0  0  0  0  0
    7.8862   56.5266  122.6026 C   0  0  0  0  0  0  0  0  0  0  0  0
    6.9036   55.4504  122.4069 C   0  0  0  0  0  0  0  0  0  0  0  0
    7.0385   54.3708  121.5202 C   0  0  0  0  0  0  0  0  0  0  0  0
    5.9670   53.5596  121.6145 N   0  0  0  0  0  0  0  0  0  0  0  0
    5.1126   54.0533  122.5349 C   0  0  0  0  0  0  0  0  0  0  0  0
    3.8998   53.6398  123.0129 C   0  0  0  0  0  0  0  0  0  0  0  0
    3.2410   54.3615  123.9690 C   0  0  0  0  0  0  0  0  0  0  0  0
    3.7932   55.5455  124.4821 C   0  0  0  0  0  0  0  0  0  0  0  0
    5.0245   55.9534  123.9879 C   0  0  0  0  0  0  0  0  0  0  0  0
    5.6804   55.2108  123.0228 C   0  0  0  0  0  0  0  0  0  0  0  0
    5.7780   52.6649  121.0750 H   0  0  0  0  0  0  0  0  0  0  0  0
    9.0968   47.8375  131.2882 N   0  0  0  0  0  0  0  0  0  0  0  0
    7.8110   48.3243  131.4768 C   0  0  0  0  0  0  0  0  0  0  0  0
    7.4546   48.9170  132.5072 O   0  0  0  0  0  0  0  0  0  0  0  0
    9.2289   47.3117  130.3379 H   0  0  0  0  0  0  0  0  0  0  0  0
   10.2741   47.8829  132.0872 C   0  0  0  0  0  0  0  0  0  0  0  0
   10.1320   46.8399  133.1524 C   0  0  0  0  0  0  0  0  0  0  0  0
   10.5578   47.0143  134.3320 O   0  0  0  0  0  0  0  0  0  0  0  0
    9.5017   45.5917  132.8331 N   0  0  0  0  0  0  0  0  0  0  0  0
    9.1188   45.4395  131.8873 H   0  0  0  0  0  0  0  0  0  0  0  0
    9.4170   44.5476  133.8641 C   0  0  0  0  0  0  0  0  0  0  0  0
    8.8605   45.1767  135.0454 C   0  0  0  0  0  0  0  0  0  0  0  0
    9.5665   45.3733  136.2224 O   0  0  0  0  0  0  0  0  0  0  0  0
    7.6412   45.5755  135.0203 O   0  0  0  0  0  0  0  0  0  0  0  0
    9.0655   45.3183  137.1337 H   0  0  0  0  0  0  0  0  0  0  0  0
   10.7223   43.8769  134.1022 C   0  0  0  0  0  0  0  0  0  0  0  0
   11.5837   43.9539  132.9003 C   0  0  0  0  0  0  0  0  0  0  0  0
   12.2945   45.1321  132.6776 C   0  0  0  0  0  0  0  0  0  0  0  0
   13.1297   45.2867  131.5924 C   0  0  0  0  0  0  0  0  0  0  0  0
   13.2782   44.2391  130.6784 C   0  0  0  0  0  0  0  0  0  0  0  0
   12.5806   43.0904  130.9052 C   0  0  0  0  0  0  0  0  0  0  0  0
   11.7529   42.9478  131.9885 C   0  0  0  0  0  0  0  0  0  0  0  0
   10.4575   49.1751  132.8658 C   0  0  0  0  0  0  0  0  0  0  0  0
    9.2750   51.3470  132.5115 C   0  0  0  0  0  0  0  0  0  0  0  0
   10.3938   50.4298  132.0558 C   0  0  0  0  0  0  0  0  0  0  0  0
   10.0927   50.0029  130.6154 C   0  0  0  0  0  0  0  0  0  0  0  0
    6.7731   46.6330  130.1876 C   0  0  0  0  0  0  0  0  0  0  0  0
    7.9785   46.1500  129.4933 C   0  0  0  0  0  0  0  0  0  0  0  0
    8.7888   46.9901  128.7182 C   0  0  0  0  0  0  0  0  0  0  0  0
    9.8087   46.2835  128.2115 N   0  0  0  0  0  0  0  0  0  0  0  0
    9.7131   45.0047  128.6188 C   0  0  0  0  0  0  0  0  0  0  0  0
   10.4927   43.8963  128.3933 C   0  0  0  0  0  0  0  0  0  0  0  0
   10.1407   42.7000  128.9620 C   0  0  0  0  0  0  0  0  0  0  0  0
    9.0201   42.6312  129.7435 C   0  0  0  0  0  0  0  0  0  0  0  0
    8.2202   43.7289  129.9862 C   0  0  0  0  0  0  0  0  0  0  0  0
    8.5683   44.9154  129.4221 C   0  0  0  0  0  0  0  0  0  0  0  0
   10.5857   46.6392  127.5811 H   0  0  0  0  0  0  0  0  0  0  0  0
 55 56  1  0  0  0
 56 57  1  0  0  0
 56 54  1  0  0  0
 54 37  1  0  0  0
 37 33  1  0  0  0
 33 34  1  0  0  0
 34 35  2  0  0  0
 34  1  1  0  0  0
  1 58  1  0  0  0
 58 59  1  0  0  0
 59 60  2  0  0  0
 60 61  1  0  0  0
 61 62  1  0  0  0
 62 63  2  0  0  0
 63 64  1  0  0  0
 64 65  2  0  0  0
 65 66  1  0  0  0
 66 67  2  0  0  0
  1  2  1  0  0  0
  2  3  1  0  0  0
  3  4  2  0  0  0
  3  6  1  0  0  0
  6  7  1  0  0  0
  7  8  1  0  0  0
  8  9  2  0  0  0
  8 11  1  0  0  0
 11 12  1  0  0  0
 12 13  1  0  0  0
 13 14  1  0  0  0
 14 15  1  0  0  0
 15 16  1  0  0  0
 16 17  2  0  0  0
 16 18  1  0  0  0
 18 19  1  0  0  0
 18 22  1  0  0  0
 22 23  1  0  0  0
 23 24  2  0  0  0
 24 25  1  0  0  0
 25 26  1  0  0  0
 26 27  2  0  0  0
 27 28  1  0  0  0
 28 29  2  0  0  0
 29 30  1  0  0  0
 30 31  2  0  0  0
 37 38  1  0  0  0
 38 39  2  0  0  0
 38 40  1  0  0  0
 40 42  1  0  0  0
 42 47  1  0  0  0
 47 48  1  0  0  0
 48 49  2  0  0  0
 49 50  1  0  0  0
 50 51  2  0  0  0
 51 52  1  0  0  0
 52 53  2  0  0  0
 42 43  1  0  0  0
 43 44  1  0  0  0
 43 45  2  0  0  0
 67 59  1  0  0  0
 15 11  1  0  0  0
 31 23  1  0  0  0
 53 48  1  0  0  0
 67 62  1  0  0  0
 31 26  1  0  0  0
 33 36  1  0  0  0
 61 68  1  0  0  0
  2  5  1  0  0  0
  7 10  1  0  0  0
 19 20  1  0  0  0
 19 21  1  0  0  0
 25 32  1  0  0  0
 40 41  1  0  0  0
 44 46  1  0  0  0
M  END
> <minimizedAffinity>
3.09711

> <CNNscore>
0.3224367201

> <CNNaffinity>
7.7698183060

> <CNN_VS>
2.5052747726

> <CNNaffinity_variance>
0.0804992616

$$$$
[H]OC(=O)[C@@]([H])(N([H])C(=O)[C@@]([H])(N([H])C(=O)[C@@]([H])(N([H])C(=O)C([H])([H])N([H])C(=O)[C@@]1([H])N(C(=O)[C@@]([H])(N([H])[H])C([H])([H])c2c([H])n([H])c3c([H])c([H])c([H])c([H])c23)C([H])([H])C([H])([H])C1([H])[H])C([H])([H])c1c([H])n([H])c2c([H])c([H])c([H])c([H])c12)C([H])([H])C([H])(C([H])([H])[H])C([H])([H])[H])C([H])([H])c1c([H])c([H])c([H])c([H])c1[H]


 68 73  0  0  0  0  0  0  0  0999 V2000
   10.4025   45.6104  128.4488 C   0  0  0  0  0  0  0  0  0  0  0  0
    9.2524   46.3737  128.0374 N   0  0  0  0  0  0  0  0  0  0  0  0
    8.0048   46.1703  128.6542 C   0  0  0  0  0  0  0  0  0  0  0  0
    7.9780   45.2803  129.5947 O   0  0  0  0  0  0  0  0  0  0  0  0
    9.3465   47.0749  127.2863 H   0  0  0  0  0  0  0  0  0  0  0  0
    6.7403   46.8065  128.3905 C   0  0  0  0  0  0  0  0  0  0  0  0
    6.3147   47.8430  129.3094 N   0  0  0  0  0  0  0  0  0  0  0  0
    6.8124   49.1334  129.0468 C   0  0  0  0  0  0  0  0  0  0  0  0
    7.5784   49.2109  127.9919 O   0  0  0  0  0  0  0  0  0  0  0  0
    5.6710   47.5787  130.0537 H   0  0  0  0  0  0  0  0  0  0  0  0
    6.5733   50.3286  129.7852 C   0  0  0  0  0  0  0  0  0  0  0  0
    5.1412   50.4190  130.3304 C   0  0  0  0  0  0  0  0  0  0  0  0
    5.1978   51.7911  130.9853 C   0  0  0  0  0  0  0  0  0  0  0  0
    6.4819   52.4506  130.4951 C   0  0  0  0  0  0  0  0  0  0  0  0
    6.7376   51.6360  129.2674 N   0  0  0  0  0  0  0  0  0  0  0  0
    7.0239   52.2273  128.0337 C   0  0  0  0  0  0  0  0  0  0  0  0
    7.1557   51.4691  127.0126 O   0  0  0  0  0  0  0  0  0  0  0  0
    7.2067   53.6739  127.7587 C   0  0  0  0  0  0  0  0  0  0  0  0
    8.5209   54.0395  127.3439 N   0  0  0  0  0  0  0  0  0  0  0  0
    9.2593   53.3576  127.5881 H   0  0  0  0  0  0  0  0  0  0  0  0
    8.8284   54.9756  127.6926 H   0  0  0  0  0  0  0  0  0  0  0  0
    6.1600   54.1365  126.7528 C   0  0  0  0  0  0  0  0  0  0  0  0
    6.6141   55.1677  125.8082 C   0  0  0  0  0  0  0  0  0  0  0  0
    6.5140   56.5544  126.0005 C   0  0  0  0  0  0  0  0  0  0  0  0
    7.0515   57.2058  124.9507 N   0  0  0  0  0  0  0  0  0  0  0  0
    7.5121   56.3072  124.0557 C   0  0  0  0  0  0  0  0  0  0  0  0
    8.1323   56.4186  122.8419 C   0  0  0  0  0  0  0  0  0  0  0  0
    8.4920   55.3053  122.1346 C   0  0  0  0  0  0  0  0  0  0  0  0
    8.2316   54.0208  122.6367 C   0  0  0  0  0  0  0  0  0  0  0  0
    7.6015   53.9224  123.8696 C   0  0  0  0  0  0  0  0  0  0  0  0
    7.2466   55.0581  124.5750 C   0  0  0  0  0  0  0  0  0  0  0  0
    7.1258   58.2547  124.8038 H   0  0  0  0  0  0  0  0  0  0  0  0
    9.5135   43.7960  129.9151 N   0  0  0  0  0  0  0  0  0  0  0  0
   10.1024   44.1806  128.7188 C   0  0  0  0  0  0  0  0  0  0  0  0
   10.4041   43.3771  127.8224 O   0  0  0  0  0  0  0  0  0  0  0  0
    9.3467   44.6277  130.6061 H   0  0  0  0  0  0  0  0  0  0  0  0
    9.0887   42.5353  130.4217 C   0  0  0  0  0  0  0  0  0  0  0  0
    8.4743   42.7776  131.7657 C   0  0  0  0  0  0  0  0  0  0  0  0
    7.5363   42.0591  132.2210 O   0  0  0  0  0  0  0  0  0  0  0  0
    8.9511   43.8654  132.5699 N   0  0  0  0  0  0  0  0  0  0  0  0
    9.7358   44.4444  132.2332 H   0  0  0  0  0  0  0  0  0  0  0  0
    8.3063   44.1371  133.8623 C   0  0  0  0  0  0  0  0  0  0  0  0
    7.6026   45.3960  133.7171 C   0  0  0  0  0  0  0  0  0  0  0  0
    7.1107   45.8727  132.5117 O   0  0  0  0  0  0  0  0  0  0  0  0
    7.4212   46.1290  134.7546 O   0  0  0  0  0  0  0  0  0  0  0  0
    7.1059   46.8984  132.3318 H   0  0  0  0  0  0  0  0  0  0  0  0
    9.2706   44.1180  134.9937 C   0  0  0  0  0  0  0  0  0  0  0  0
   10.6203   44.5302  134.5455 C   0  0  0  0  0  0  0  0  0  0  0  0
   11.6977   43.7061  134.8660 C   0  0  0  0  0  0  0  0  0  0  0  0
   12.9860   44.0049  134.4785 C   0  0  0  0  0  0  0  0  0  0  0  0
   13.2353   45.1666  133.7414 C   0  0  0  0  0  0  0  0  0  0  0  0
   12.1754   45.9655  133.4312 C   0  0  0  0  0  0  0  0  0  0  0  0
   10.8980   45.6579  133.8218 C   0  0  0  0  0  0  0  0  0  0  0  0
   10.2174   41.5590  130.7085 C   0  0  0  0  0  0  0  0  0  0  0  0
   12.2625   42.8094  131.4121 C   0  0  0  0  0  0  0  0  0  0  0  0
   11.1109   41.9246  131.8497 C   0  0  0  0  0  0  0  0  0  0  0  0
   11.7018   40.6129  132.3770 C   0  0  0  0  0  0  0  0  0  0  0  0
   10.8877   46.1225  129.8197 C   0  0  0  0  0  0  0  0  0  0  0  0
   10.4969   47.5161  130.0905 C   0  0  0  0  0  0  0  0  0  0  0  0
   10.5530   48.5178  129.1124 C   0  0  0  0  0  0  0  0  0  0  0  0
   10.1394   49.6791  129.6384 N   0  0  0  0  0  0  0  0  0  0  0  0
    9.8075   49.4928  130.9288 C   0  0  0  0  0  0  0  0  0  0  0  0
    9.3277   50.3408  131.8972 C   0  0  0  0  0  0  0  0  0  0  0  0
    9.0672   49.8511  133.1505 C   0  0  0  0  0  0  0  0  0  0  0  0
    9.2896   48.5275  133.4144 C   0  0  0  0  0  0  0  0  0  0  0  0
    9.7704   47.6545  132.4603 C   0  0  0  0  0  0  0  0  0  0  0  0
   10.0294   48.1396  131.2174 C   0  0  0  0  0  0  0  0  0  0  0  0
   10.0746   50.6189  129.1483 H   0  0  0  0  0  0  0  0  0  0  0  0
 55 56  1  0  0  0
 56 57  1  0  0  0
 56 54  1  0  0  0
 54 37  1  0  0  0
 37 33  1  0  0  0
 33 34  1  0  0  0
 34 35  2  0  0  0
 34  1  1  0  0  0
  1 58  1  0  0  0
 58 59  1  0  0  0
 59 60  2  0  0  0
 60 61  1  0  0  0
 61 62  1  0  0  0
 62 63  2  0  0  0
 63 64  1  0  0  0
 64 65  2  0  0  0
 65 66  1  0  0  0
 66 67  2  0  0  0
  1  2  1  0  0  0
  2  3  1  0  0  0
  3  4  2  0  0  0
  3  6  1  0  0  0
  6  7  1  0  0  0
  7  8  1  0  0  0
  8  9  2  0  0  0
  8 11  1  0  0  0
 11 12  1  0  0  0
 12 13  1  0  0  0
 13 14  1  0  0  0
 14 15  1  0  0  0
 15 16  1  0  0  0
 16 17  2  0  0  0
 16 18  1  0  0  0
 18 19  1  0  0  0
 18 22  1  0  0  0
 22 23  1  0  0  0
 23 24  2  0  0  0
 24 25  1  0  0  0
 25 26  1  0  0  0
 26 27  2  0  0  0
 27 28  1  0  0  0
 28 29  2  0  0  0
 29 30  1  0  0  0
 30 31  2  0  0  0
 37 38  1  0  0  0
 38 39  2  0  0  0
 38 40  1  0  0  0
 40 42  1  0  0  0
 42 47  1  0  0  0
 47 48  1  0  0  0
 48 49  2  0  0  0
 49 50  1  0  0  0
 50 51  2  0  0  0
 51 52  1  0  0  0
 52 53  2  0  0  0
 42 43  1  0  0  0
 43 44  1  0  0  0
 43 45  2  0  0  0
 67 59  1  0  0  0
 15 11  1  0  0  0
 31 23  1  0  0  0
 53 48  1  0  0  0
 67 62  1  0  0  0
 31 26  1  0  0  0
 33 36  1  0  0  0
 61 68  1  0  0  0
  2  5  1  0  0  0
  7 10  1  0  0  0
 19 20  1  0  0  0
 19 21  1  0  0  0
 25 32  1  0  0  0
 40 41  1  0  0  0
 44 46  1  0  0  0
M  END
> <minimizedAffinity>
12.45327

> <CNNscore>
0.3177595735

> <CNNaffinity>
7.9380540848

> <CNN_VS>
2.5223927498

> <CNNaffinity_variance>
0.2640173137

$$$$
[H]OC(=O)[C@@]([H])(N([H])C(=O)[C@@]([H])(N([H])C(=O)[C@@]([H])(N([H])C(=O)C([H])([H])N([H])C(=O)[C@@]1([H])N(C(=O)[C@@]([H])(N([H])[H])C([H])([H])c2c([H])n([H])c3c([H])c([H])c([H])c([H])c23)C([H])([H])C([H])([H])C1([H])[H])C([H])([H])c1c([H])n([H])c2c([H])c([H])c([H])c([H])c12)C([H])([H])C([H])(C([H])([H])[H])C([H])([H])[H])C([H])([H])c1c([H])c([H])c([H])c([H])c1[H]


 68 73  0  0  0  0  0  0  0  0999 V2000
    8.2391   48.5164  129.7542 C   0  0  0  0  0  0  0  0  0  0  0  0
    8.0957   49.7924  129.1018 N   0  0  0  0  0  0  0  0  0  0  0  0
    7.1697   50.7369  129.5801 C   0  0  0  0  0  0  0  0  0  0  0  0
    6.4887   50.3822  130.6230 O   0  0  0  0  0  0  0  0  0  0  0  0
    8.6781   50.0141  128.2793 H   0  0  0  0  0  0  0  0  0  0  0  0
    6.8599   52.0495  129.0759 C   0  0  0  0  0  0  0  0  0  0  0  0
    7.0030   52.2633  127.6497 N   0  0  0  0  0  0  0  0  0  0  0  0
    7.2507   53.5913  127.2537 C   0  0  0  0  0  0  0  0  0  0  0  0
    7.3338   54.4415  128.2415 O   0  0  0  0  0  0  0  0  0  0  0  0
    6.9454   51.4475  127.0420 H   0  0  0  0  0  0  0  0  0  0  0  0
    7.4192   54.0907  125.9296 C   0  0  0  0  0  0  0  0  0  0  0  0
    8.8911   54.3214  125.5597 C   0  0  0  0  0  0  0  0  0  0  0  0
    8.7213   54.8965  124.1614 C   0  0  0  0  0  0  0  0  0  0  0  0
    7.2404   55.2241  124.0064 C   0  0  0  0  0  0  0  0  0  0  0  0
    6.8386   55.2877  125.4454 N   0  0  0  0  0  0  0  0  0  0  0  0
    6.1013   56.3573  125.9609 C   0  0  0  0  0  0  0  0  0  0  0  0
    5.8602   56.3799  127.2165 O   0  0  0  0  0  0  0  0  0  0  0  0
    5.5401   57.5022  125.2018 C   0  0  0  0  0  0  0  0  0  0  0  0
    6.2660   57.8489  124.0247 N   0  0  0  0  0  0  0  0  0  0  0  0
    7.2426   57.5090  124.0003 H   0  0  0  0  0  0  0  0  0  0  0  0
    6.2843   58.8751  123.8271 H   0  0  0  0  0  0  0  0  0  0  0  0
    4.0732   57.2345  124.8889 C   0  0  0  0  0  0  0  0  0  0  0  0
    3.7457   55.8347  124.5798 C   0  0  0  0  0  0  0  0  0  0  0  0
    4.2175   55.1090  123.4750 C   0  0  0  0  0  0  0  0  0  0  0  0
    3.7422   53.8489  123.5136 N   0  0  0  0  0  0  0  0  0  0  0  0
    2.9658   53.6977  124.6068 C   0  0  0  0  0  0  0  0  0  0  0  0
    2.2514   52.6495  125.1180 C   0  0  0  0  0  0  0  0  0  0  0  0
    1.5326   52.7889  126.2725 C   0  0  0  0  0  0  0  0  0  0  0  0
    1.5094   54.0121  126.9603 C   0  0  0  0  0  0  0  0  0  0  0  0
    2.2389   55.0675  126.4303 C   0  0  0  0  0  0  0  0  0  0  0  0
    2.9639   54.9101  125.2628 C   0  0  0  0  0  0  0  0  0  0  0  0
    3.9204   53.0641  122.8210 H   0  0  0  0  0  0  0  0  0  0  0  0
   10.0810   47.8837  131.3162 N   0  0  0  0  0  0  0  0  0  0  0  0
    9.6513   48.1400  130.0218 C   0  0  0  0  0  0  0  0  0  0  0  0
   10.3979   48.0697  129.0330 O   0  0  0  0  0  0  0  0  0  0  0  0
    9.3013   48.0256  132.0705 H   0  0  0  0  0  0  0  0  0  0  0  0
   11.3342   47.4779  131.8558 C   0  0  0  0  0  0  0  0  0  0  0  0
   11.3450   45.9807  131.8845 C   0  0  0  0  0  0  0  0  0  0  0  0
   10.7041   45.2826  131.0448 O   0  0  0  0  0  0  0  0  0  0  0  0
   12.0968   45.3034  132.9011 N   0  0  0  0  0  0  0  0  0  0  0  0
   12.6522   45.8509  133.5764 H   0  0  0  0  0  0  0  0  0  0  0  0
   12.0575   43.8355  132.9629 C   0  0  0  0  0  0  0  0  0  0  0  0
   12.1193   43.3619  131.5943 C   0  0  0  0  0  0  0  0  0  0  0  0
   12.9915   43.8638  130.6407 O   0  0  0  0  0  0  0  0  0  0  0  0
   11.3216   42.4275  131.2243 O   0  0  0  0  0  0  0  0  0  0  0  0
   12.6882   43.9111  129.6456 H   0  0  0  0  0  0  0  0  0  0  0  0
   10.8811   43.3297  133.7183 C   0  0  0  0  0  0  0  0  0  0  0  0
   10.0069   44.4460  134.1452 C   0  0  0  0  0  0  0  0  0  0  0  0
   10.3524   45.1443  135.3010 C   0  0  0  0  0  0  0  0  0  0  0  0
    9.6041   46.2046  135.7645 C   0  0  0  0  0  0  0  0  0  0  0  0
    8.4610   46.6034  135.0650 C   0  0  0  0  0  0  0  0  0  0  0  0
    8.1319   45.9158  133.9350 C   0  0  0  0  0  0  0  0  0  0  0  0
    8.8841   44.8627  133.4833 C   0  0  0  0  0  0  0  0  0  0  0  0
   11.5519   47.8710  133.3075 C   0  0  0  0  0  0  0  0  0  0  0  0
   10.1270   49.8722  132.8539 C   0  0  0  0  0  0  0  0  0  0  0  0
   10.5550   48.8317  133.8712 C   0  0  0  0  0  0  0  0  0  0  0  0
   11.2564   49.5614  135.0215 C   0  0  0  0  0  0  0  0  0  0  0  0
    7.7634   47.4023  128.8005 C   0  0  0  0  0  0  0  0  0  0  0  0
    7.8868   46.0528  129.3767 C   0  0  0  0  0  0  0  0  0  0  0  0
    7.1786   45.6533  130.5177 C   0  0  0  0  0  0  0  0  0  0  0  0
    7.4845   44.3818  130.8107 N   0  0  0  0  0  0  0  0  0  0  0  0
    8.3680   43.9151  129.9097 C   0  0  0  0  0  0  0  0  0  0  0  0
    8.9832   42.6965  129.7556 C   0  0  0  0  0  0  0  0  0  0  0  0
    9.8506   42.5087  128.7113 C   0  0  0  0  0  0  0  0  0  0  0  0
   10.0880   43.5374  127.8415 C   0  0  0  0  0  0  0  0  0  0  0  0
    9.4834   44.7706  127.9731 C   0  0  0  0  0  0  0  0  0  0  0  0
    8.6235   44.9577  129.0089 C   0  0  0  0  0  0  0  0  0  0  0  0
    7.1135   43.8021  131.6195 H   0  0  0  0  0  0  0  0  0  0  0  0
 55 56  1  0  0  0
 56 57  1  0  0  0
 56 54  1  0  0  0
 54 37  1  0  0  0
 37 33  1  0  0  0
 33 34  1  0  0  0
 34 35  2  0  0  0
 34  1  1  0  0  0
  1 58  1  0  0  0
 58 59  1  0  0  0
 59 60  2  0  0  0
 60 61  1  0  0  0
 61 62  1  0  0  0
 62 63  2  0  0  0
 63 64  1  0  0  0
 64 65  2  0  0  0
 65 66  1  0  0  0
 66 67  2  0  0  0
  1  2  1  0  0  0
  2  3  1  0  0  0
  3  4  2  0  0  0
  3  6  1  0  0  0
  6  7  1  0  0  0
  7  8  1  0  0  0
  8  9  2  0  0  0
  8 11  1  0  0  0
 11 12  1  0  0  0
 12 13  1  0  0  0
 13 14  1  0  0  0
 14 15  1  0  0  0
 15 16  1  0  0  0
 16 17  2  0  0  0
 16 18  1  0  0  0
 18 19  1  0  0  0
 18 22  1  0  0  0
 22 23  1  0  0  0
 23 24  2  0  0  0
 24 25  1  0  0  0
 25 26  1  0  0  0
 26 27  2  0  0  0
 27 28  1  0  0  0
 28 29  2  0  0  0
 29 30  1  0  0  0
 30 31  2  0  0  0
 37 38  1  0  0  0
 38 39  2  0  0  0
 38 40  1  0  0  0
 40 42  1  0  0  0
 42 47  1  0  0  0
 47 48  1  0  0  0
 48 49  2  0  0  0
 49 50  1  0  0  0
 50 51  2  0  0  0
 51 52  1  0  0  0
 52 53  2  0  0  0
 42 43  1  0  0  0
 43 44  1  0  0  0
 43 45  2  0  0  0
 67 59  1  0  0  0
 15 11  1  0  0  0
 31 23  1  0  0  0
 53 48  1  0  0  0
 67 62  1  0  0  0
 31 26  1  0  0  0
 33 36  1  0  0  0
 61 68  1  0  0  0
  2  5  1  0  0  0
  7 10  1  0  0  0
 19 20  1  0  0  0
 19 21  1  0  0  0
 25 32  1  0  0  0
 40 41  1  0  0  0
 44 46  1  0  0  0
M  END
> <minimizedAffinity>
-1.88908

> <CNNscore>
0.3053639829

> <CNNaffinity>
7.9567275047

> <CNN_VS>
2.4296979904

> <CNNaffinity_variance>
0.3444515765

$$$$
[H]OC(=O)[C@@]([H])(N([H])C(=O)[C@@]([H])(N([H])C(=O)[C@@]([H])(N([H])C(=O)C([H])([H])N([H])C(=O)[C@@]1([H])N(C(=O)[C@@]([H])(N([H])[H])C([H])([H])c2c([H])n([H])c3c([H])c([H])c([H])c([H])c23)C([H])([H])C([H])([H])C1([H])[H])C([H])([H])c1c([H])n([H])c2c([H])c([H])c([H])c([H])c12)C([H])([H])C([H])(C([H])([H])[H])C([H])([H])[H])C([H])([H])c1c([H])c([H])c([H])c([H])c1[H]


 68 73  0  0  0  0  0  0  0  0999 V2000
    8.5979   48.8633  129.9904 C   0  0  0  0  0  0  0  0  0  0  0  0
    7.7753   49.6756  129.1312 N   0  0  0  0  0  0  0  0  0  0  0  0
    7.4036   50.9747  129.5214 C   0  0  0  0  0  0  0  0  0  0  0  0
    7.8533   51.3702  130.6698 O   0  0  0  0  0  0  0  0  0  0  0  0
    7.4589   49.3010  128.2233 H   0  0  0  0  0  0  0  0  0  0  0  0
    6.5864   51.9379  128.8303 C   0  0  0  0  0  0  0  0  0  0  0  0
    6.9286   52.2321  127.4531 N   0  0  0  0  0  0  0  0  0  0  0  0
    7.1890   53.5851  127.1646 C   0  0  0  0  0  0  0  0  0  0  0  0
    7.1004   54.3823  128.1953 O   0  0  0  0  0  0  0  0  0  0  0  0
    6.9860   51.4492  126.8035 H   0  0  0  0  0  0  0  0  0  0  0  0
    7.5323   54.1594  125.9063 C   0  0  0  0  0  0  0  0  0  0  0  0
    9.0296   54.4732  125.7802 C   0  0  0  0  0  0  0  0  0  0  0  0
    9.0466   55.1120  124.3996 C   0  0  0  0  0  0  0  0  0  0  0  0
    7.5921   55.3819  124.0310 C   0  0  0  0  0  0  0  0  0  0  0  0
    6.9720   55.3532  125.3914 N   0  0  0  0  0  0  0  0  0  0  0  0
    6.1105   56.3613  125.8332 C   0  0  0  0  0  0  0  0  0  0  0  0
    5.6792   56.3082  127.0357 O   0  0  0  0  0  0  0  0  0  0  0  0
    5.6141   57.5182  125.0477 C   0  0  0  0  0  0  0  0  0  0  0  0
    6.3965   57.8377  123.8995 N   0  0  0  0  0  0  0  0  0  0  0  0
    7.3629   57.4694  123.9158 H   0  0  0  0  0  0  0  0  0  0  0  0
    6.4529   58.8620  123.6989 H   0  0  0  0  0  0  0  0  0  0  0  0
    4.1537   57.2918  124.6768 C   0  0  0  0  0  0  0  0  0  0  0  0
    3.7765   55.8885  124.4522 C   0  0  0  0  0  0  0  0  0  0  0  0
    4.2114   55.0850  123.3866 C   0  0  0  0  0  0  0  0  0  0  0  0
    3.6950   53.8460  123.5025 N   0  0  0  0  0  0  0  0  0  0  0  0
    2.9267   53.7840  124.6099 C   0  0  0  0  0  0  0  0  0  0  0  0
    2.1838   52.7916  125.1874 C   0  0  0  0  0  0  0  0  0  0  0  0
    1.4832   53.0211  126.3388 C   0  0  0  0  0  0  0  0  0  0  0  0
    1.5085   54.2819  126.9551 C   0  0  0  0  0  0  0  0  0  0  0  0
    2.2664   55.2799  126.3581 C   0  0  0  0  0  0  0  0  0  0  0  0
    2.9724   55.0314  125.1948 C   0  0  0  0  0  0  0  0  0  0  0  0
    3.8392   53.0172  122.8547 H   0  0  0  0  0  0  0  0  0  0  0  0
    9.1460   46.4810  130.4973 N   0  0  0  0  0  0  0  0  0  0  0  0
    8.5618   47.4164  129.6549 C   0  0  0  0  0  0  0  0  0  0  0  0
    7.9854   47.1115  128.5991 O   0  0  0  0  0  0  0  0  0  0  0  0
    9.6405   46.9256  131.3661 H   0  0  0  0  0  0  0  0  0  0  0  0
    9.2328   45.0609  130.4521 C   0  0  0  0  0  0  0  0  0  0  0  0
   10.6753   44.7071  130.2605 C   0  0  0  0  0  0  0  0  0  0  0  0
   11.0582   43.8757  129.3856 O   0  0  0  0  0  0  0  0  0  0  0  0
   11.6655   45.3184  131.0990 N   0  0  0  0  0  0  0  0  0  0  0  0
   11.3803   46.0223  131.7971 H   0  0  0  0  0  0  0  0  0  0  0  0
   13.0735   44.9248  130.9485 C   0  0  0  0  0  0  0  0  0  0  0  0
   13.3166   44.7931  129.5256 C   0  0  0  0  0  0  0  0  0  0  0  0
   12.5136   45.3601  128.5479 O   0  0  0  0  0  0  0  0  0  0  0  0
   14.3270   44.1087  129.1293 O   0  0  0  0  0  0  0  0  0  0  0  0
   12.3812   44.8615  127.6432 H   0  0  0  0  0  0  0  0  0  0  0  0
   13.4088   43.7041  131.7280 C   0  0  0  0  0  0  0  0  0  0  0  0
   12.3087   43.3484  132.6531 C   0  0  0  0  0  0  0  0  0  0  0  0
   11.2918   42.5231  132.1759 C   0  0  0  0  0  0  0  0  0  0  0  0
   10.2364   42.1311  132.9705 C   0  0  0  0  0  0  0  0  0  0  0  0
   10.1698   42.5667  134.2975 C   0  0  0  0  0  0  0  0  0  0  0  0
   11.1694   43.3720  134.7559 C   0  0  0  0  0  0  0  0  0  0  0  0
   12.2147   43.7553  133.9562 C   0  0  0  0  0  0  0  0  0  0  0  0
    8.5407   44.4252  129.2578 C   0  0  0  0  0  0  0  0  0  0  0  0
    7.9478   42.5998  130.8568 C   0  0  0  0  0  0  0  0  0  0  0  0
    8.1936   42.9792  129.4090 C   0  0  0  0  0  0  0  0  0  0  0  0
    9.4086   42.1864  128.9164 C   0  0  0  0  0  0  0  0  0  0  0  0
    8.0251   48.8966  131.4214 C   0  0  0  0  0  0  0  0  0  0  0  0
    9.0074   48.5131  132.4492 C   0  0  0  0  0  0  0  0  0  0  0  0
   10.2196   49.1938  132.6237 C   0  0  0  0  0  0  0  0  0  0  0  0
   10.9079   48.6300  133.6260 N   0  0  0  0  0  0  0  0  0  0  0  0
   10.2029   47.6004  134.1294 C   0  0  0  0  0  0  0  0  0  0  0  0
   10.4498   46.7157  135.1508 C   0  0  0  0  0  0  0  0  0  0  0  0
    9.5189   45.7545  135.4472 C   0  0  0  0  0  0  0  0  0  0  0  0
    8.3613   45.6935  134.7210 C   0  0  0  0  0  0  0  0  0  0  0  0
    8.0884   46.5697  133.6907 C   0  0  0  0  0  0  0  0  0  0  0  0
    9.0114   47.5228  133.3959 C   0  0  0  0  0  0  0  0  0  0  0  0
   11.8627   48.9180  133.9909 H   0  0  0  0  0  0  0  0  0  0  0  0
 55 56  1  0  0  0
 56 57  1  0  0  0
 56 54  1  0  0  0
 54 37  1  0  0  0
 37 33  1  0  0  0
 33 34  1  0  0  0
 34 35  2  0  0  0
 34  1  1  0  0  0
  1 58  1  0  0  0
 58 59  1  0  0  0
 59 60  2  0  0  0
 60 61  1  0  0  0
 61 62  1  0  0  0
 62 63  2  0  0  0
 63 64  1  0  0  0
 64 65  2  0  0  0
 65 66  1  0  0  0
 66 67  2  0  0  0
  1  2  1  0  0  0
  2  3  1  0  0  0
  3  4  2  0  0  0
  3  6  1  0  0  0
  6  7  1  0  0  0
  7  8  1  0  0  0
  8  9  2  0  0  0
  8 11  1  0  0  0
 11 12  1  0  0  0
 12 13  1  0  0  0
 13 14  1  0  0  0
 14 15  1  0  0  0
 15 16  1  0  0  0
 16 17  2  0  0  0
 16 18  1  0  0  0
 18 19  1  0  0  0
 18 22  1  0  0  0
 22 23  1  0  0  0
 23 24  2  0  0  0
 24 25  1  0  0  0
 25 26  1  0  0  0
 26 27  2  0  0  0
 27 28  1  0  0  0
 28 29  2  0  0  0
 29 30  1  0  0  0
 30 31  2  0  0  0
 37 38  1  0  0  0
 38 39  2  0  0  0
 38 40  1  0  0  0
 40 42  1  0  0  0
 42 47  1  0  0  0
 47 48  1  0  0  0
 48 49  2  0  0  0
 49 50  1  0  0  0
 50 51  2  0  0  0
 51 52  1  0  0  0
 52 53  2  0  0  0
 42 43  1  0  0  0
 43 44  1  0  0  0
 43 45  2  0  0  0
 67 59  1  0  0  0
 15 11  1  0  0  0
 31 23  1  0  0  0
 53 48  1  0  0  0
 67 62  1  0  0  0
 31 26  1  0  0  0
 33 36  1  0  0  0
 61 68  1  0  0  0
  2  5  1  0  0  0
  7 10  1  0  0  0
 19 20  1  0  0  0
 19 21  1  0  0  0
 25 32  1  0  0  0
 40 41  1  0  0  0
 44 46  1  0  0  0
M  END
> <minimizedAffinity>
-0.70606

> <CNNscore>
0.2988498211

> <CNNaffinity>
7.8898339272

> <CNN_VS>
2.3578753471

> <CNNaffinity_variance>
0.1621997356

$$$$
[H]OC(=O)[C@@]([H])(N([H])C(=O)[C@@]([H])(N([H])C(=O)[C@@]([H])(N([H])C(=O)C([H])([H])N([H])C(=O)[C@@]1([H])N(C(=O)[C@@]([H])(N([H])[H])C([H])([H])c2c([H])n([H])c3c([H])c([H])c([H])c([H])c23)C([H])([H])C([H])([H])C1([H])[H])C([H])([H])c1c([H])n([H])c2c([H])c([H])c([H])c([H])c12)C([H])([H])C([H])(C([H])([H])[H])C([H])([H])[H])C([H])([H])c1c([H])c([H])c([H])c([H])c1[H]


 68 73  0  0  0  0  0  0  0  0999 V2000
    6.7419   48.0532  129.4988 C   0  0  0  0  0  0  0  0  0  0  0  0
    7.3203   49.3238  129.1443 N   0  0  0  0  0  0  0  0  0  0  0  0
    6.5595   50.5032  129.2366 C   0  0  0  0  0  0  0  0  0  0  0  0
    5.3441   50.3597  129.6604 O   0  0  0  0  0  0  0  0  0  0  0  0
    8.2997   49.3675  128.8223 H   0  0  0  0  0  0  0  0  0  0  0  0
    6.9322   51.8581  128.9229 C   0  0  0  0  0  0  0  0  0  0  0  0
    7.0860   52.1967  127.5223 N   0  0  0  0  0  0  0  0  0  0  0  0
    7.2763   53.5631  127.2421 C   0  0  0  0  0  0  0  0  0  0  0  0
    7.3047   54.3307  128.2983 O   0  0  0  0  0  0  0  0  0  0  0  0
    7.0759   51.4328  126.8481 H   0  0  0  0  0  0  0  0  0  0  0  0
    7.4403   54.1786  125.9672 C   0  0  0  0  0  0  0  0  0  0  0  0
    8.8928   54.5847  125.6811 C   0  0  0  0  0  0  0  0  0  0  0  0
    8.7154   55.2469  124.3230 C   0  0  0  0  0  0  0  0  0  0  0  0
    7.2153   55.4345  124.1268 C   0  0  0  0  0  0  0  0  0  0  0  0
    6.7566   55.3449  125.5473 N   0  0  0  0  0  0  0  0  0  0  0  0
    5.8936   56.2913  126.1070 C   0  0  0  0  0  0  0  0  0  0  0  0
    5.6057   56.1915  127.3488 O   0  0  0  0  0  0  0  0  0  0  0  0
    5.2446   57.4293  125.4102 C   0  0  0  0  0  0  0  0  0  0  0  0
    5.9004   57.8478  124.2155 N   0  0  0  0  0  0  0  0  0  0  0  0
    6.8904   57.5582  124.1387 H   0  0  0  0  0  0  0  0  0  0  0  0
    5.8600   58.8792  124.0510 H   0  0  0  0  0  0  0  0  0  0  0  0
    3.7801   57.0981  125.1509 C   0  0  0  0  0  0  0  0  0  0  0  0
    3.5096   55.6966  124.7979 C   0  0  0  0  0  0  0  0  0  0  0  0
    4.0182   55.0225  123.6768 C   0  0  0  0  0  0  0  0  0  0  0  0
    3.5917   53.7445  123.6741 N   0  0  0  0  0  0  0  0  0  0  0  0
    2.8128   53.5313  124.7551 C   0  0  0  0  0  0  0  0  0  0  0  0
    2.1352   52.4418  125.2287 C   0  0  0  0  0  0  0  0  0  0  0  0
    1.4021   52.5192  126.3801 C   0  0  0  0  0  0  0  0  0  0  0  0
    1.3260   53.7197  127.1031 C   0  0  0  0  0  0  0  0  0  0  0  0
    2.0184   54.8175  126.6110 C   0  0  0  0  0  0  0  0  0  0  0  0
    2.7586   54.7228  125.4463 C   0  0  0  0  0  0  0  0  0  0  0  0
    3.8058   52.9880  122.9606 H   0  0  0  0  0  0  0  0  0  0  0  0
    7.2806   46.1368  131.0054 N   0  0  0  0  0  0  0  0  0  0  0  0
    7.2486   47.5064  130.7840 C   0  0  0  0  0  0  0  0  0  0  0  0
    7.6338   48.3378  131.6209 O   0  0  0  0  0  0  0  0  0  0  0  0
    6.8716   45.5515  130.1764 H   0  0  0  0  0  0  0  0  0  0  0  0
    7.7349   45.3449  132.0975 C   0  0  0  0  0  0  0  0  0  0  0  0
    8.4568   46.2565  133.0411 C   0  0  0  0  0  0  0  0  0  0  0  0
    8.0538   46.4645  134.2233 O   0  0  0  0  0  0  0  0  0  0  0  0
    9.6424   46.9307  132.5969 N   0  0  0  0  0  0  0  0  0  0  0  0
   10.0071   46.7521  131.6486 H   0  0  0  0  0  0  0  0  0  0  0  0
   10.3150   47.8703  133.5051 C   0  0  0  0  0  0  0  0  0  0  0  0
   10.3638   49.1461  132.8188 C   0  0  0  0  0  0  0  0  0  0  0  0
   10.5257   49.2816  131.4485 O   0  0  0  0  0  0  0  0  0  0  0  0
   10.2594   50.2248  133.5056 O   0  0  0  0  0  0  0  0  0  0  0  0
   11.0571   50.0955  131.0750 H   0  0  0  0  0  0  0  0  0  0  0  0
   11.6461   47.3782  133.9482 C   0  0  0  0  0  0  0  0  0  0  0  0
   11.8696   45.9838  133.5029 C   0  0  0  0  0  0  0  0  0  0  0  0
   12.2786   45.7733  132.1871 C   0  0  0  0  0  0  0  0  0  0  0  0
   12.5225   44.5107  131.6915 C   0  0  0  0  0  0  0  0  0  0  0  0
   12.3584   43.3976  132.5217 C   0  0  0  0  0  0  0  0  0  0  0  0
   11.9598   43.6133  133.8071 C   0  0  0  0  0  0  0  0  0  0  0  0
   11.7205   44.8739  134.2892 C   0  0  0  0  0  0  0  0  0  0  0  0
    8.7781   44.3030  131.7290 C   0  0  0  0  0  0  0  0  0  0  0  0
    8.6999   42.5105  133.4672 C   0  0  0  0  0  0  0  0  0  0  0  0
    8.4068   42.8861  132.0272 C   0  0  0  0  0  0  0  0  0  0  0  0
    9.2817   42.0084  131.1264 C   0  0  0  0  0  0  0  0  0  0  0  0
    7.1876   46.9894  128.4755 C   0  0  0  0  0  0  0  0  0  0  0  0
    8.6097   46.6274  128.5963 C   0  0  0  0  0  0  0  0  0  0  0  0
    9.5987   47.5611  128.9330 C   0  0  0  0  0  0  0  0  0  0  0  0
   10.7924   46.9530  128.9710 N   0  0  0  0  0  0  0  0  0  0  0  0
   10.6402   45.6494  128.6747 C   0  0  0  0  0  0  0  0  0  0  0  0
   11.5293   44.6059  128.5867 C   0  0  0  0  0  0  0  0  0  0  0  0
   11.0687   43.3556  128.2659 C   0  0  0  0  0  0  0  0  0  0  0  0
    9.7325   43.1693  128.0394 C   0  0  0  0  0  0  0  0  0  0  0  0
    8.8185   44.1996  128.1216 C   0  0  0  0  0  0  0  0  0  0  0  0
    9.2748   45.4399  128.4391 C   0  0  0  0  0  0  0  0  0  0  0  0
   11.7321   47.3961  129.1910 H   0  0  0  0  0  0  0  0  0  0  0  0
 55 56  1  0  0  0
 56 57  1  0  0  0
 56 54  1  0  0  0
 54 37  1  0  0  0
 37 33  1  0  0  0
 33 34  1  0  0  0
 34 35  2  0  0  0
 34  1  1  0  0  0
  1 58  1  0  0  0
 58 59  1  0  0  0
 59 60  2  0  0  0
 60 61  1  0  0  0
 61 62  1  0  0  0
 62 63  2  0  0  0
 63 64  1  0  0  0
 64 65  2  0  0  0
 65 66  1  0  0  0
 66 67  2  0  0  0
  1  2  1  0  0  0
  2  3  1  0  0  0
  3  4  2  0  0  0
  3  6  1  0  0  0
  6  7  1  0  0  0
  7  8  1  0  0  0
  8  9  2  0  0  0
  8 11  1  0  0  0
 11 12  1  0  0  0
 12 13  1  0  0  0
 13 14  1  0  0  0
 14 15  1  0  0  0
 15 16  1  0  0  0
 16 17  2  0  0  0
 16 18  1  0  0  0
 18 19  1  0  0  0
 18 22  1  0  0  0
 22 23  1  0  0  0
 23 24  2  0  0  0
 24 25  1  0  0  0
 25 26  1  0  0  0
 26 27  2  0  0  0
 27 28  1  0  0  0
 28 29  2  0  0  0
 29 30  1  0  0  0
 30 31  2  0  0  0
 37 38  1  0  0  0
 38 39  2  0  0  0
 38 40  1  0  0  0
 40 42  1  0  0  0
 42 47  1  0  0  0
 47 48  1  0  0  0
 48 49  2  0  0  0
 49 50  1  0  0  0
 50 51  2  0  0  0
 51 52  1  0  0  0
 52 53  2  0  0  0
 42 43  1  0  0  0
 43 44  1  0  0  0
 43 45  2  0  0  0
 67 59  1  0  0  0
 15 11  1  0  0  0
 31 23  1  0  0  0
 53 48  1  0  0  0
 67 62  1  0  0  0
 31 26  1  0  0  0
 33 36  1  0  0  0
 61 68  1  0  0  0
  2  5  1  0  0  0
  7 10  1  0  0  0
 19 20  1  0  0  0
 19 21  1  0  0  0
 25 32  1  0  0  0
 40 41  1  0  0  0
 44 46  1  0  0  0
M  END
> <minimizedAffinity>
-3.61451

> <CNNscore>
0.2704846263

> <CNNaffinity>
8.0838909149

> <CNN_VS>
2.1865682602

> <CNNaffinity_variance>
0.4066546857

$$$$
[H]c1c([H])c([H])c(C([H])([H])[C@@]([H])(C(=O)N([H])C([H])([H])c2c([H])c([H])c([H])c([H])c2Cl)N([H])C(=O)[C@@]([H])(N([H])C(=O)[C@]2([H])OC(=O)[C@@]2([H])[C@@]([H])(C([H])([H])[H])C([H])([H])C([H])([H])[H])C([H])(C([H])([H])[H])C([H])([H])[H])c([H])c1[H]


 41 43  0  0  0  0  0  0  0  0999 V2000
   10.8434   47.1693  129.9705 C   0  0  0  0  0  0  0  0  0  0  0  0
   11.6217   47.8763  130.6698 O   0  0  0  0  0  0  0  0  0  0  0  0
    9.7088   47.7918  129.4411 N   0  0  0  0  0  0  0  0  0  0  0  0
    9.0368   47.2738  128.8640 H   0  0  0  0  0  0  0  0  0  0  0  0
   11.2114   45.7614  129.7843 C   0  0  0  0  0  0  0  0  0  0  0  0
   11.6395   44.0401  131.5670 C   0  0  0  0  0  0  0  0  0  0  0  0
   12.8382   43.9868  131.2063 O   0  0  0  0  0  0  0  0  0  0  0  0
   10.7691   44.9222  130.8795 N   0  0  0  0  0  0  0  0  0  0  0  0
    9.7755   44.9708  131.1697 H   0  0  0  0  0  0  0  0  0  0  0  0
    9.9941   42.3318  132.4058 C   0  0  0  0  0  0  0  0  0  0  0  0
   11.2126   43.1772  132.6887 C   0  0  0  0  0  0  0  0  0  0  0  0
   11.9180   41.9527  132.7850 O   0  0  0  0  0  0  0  0  0  0  0  0
   10.9424   41.2669  132.0869 C   0  0  0  0  0  0  0  0  0  0  0  0
   10.9124   40.1936  131.4594 O   0  0  0  0  0  0  0  0  0  0  0  0
    9.1128   42.0814  133.6093 C   0  0  0  0  0  0  0  0  0  0  0  0
    8.8032   43.4190  134.2420 C   0  0  0  0  0  0  0  0  0  0  0  0
    6.6240   42.2513  133.4398 C   0  0  0  0  0  0  0  0  0  0  0  0
    7.8341   41.3713  133.2226 C   0  0  0  0  0  0  0  0  0  0  0  0
   10.7797   45.1703  128.4822 C   0  0  0  0  0  0  0  0  0  0  0  0
   10.3011   46.1714  127.4698 C   0  0  0  0  0  0  0  0  0  0  0  0
    9.6020   44.2372  128.7747 C   0  0  0  0  0  0  0  0  0  0  0  0
    9.4152   49.2232  129.6826 C   0  0  0  0  0  0  0  0  0  0  0  0
    9.0813   49.3479  131.1061 C   0  0  0  0  0  0  0  0  0  0  0  0
    8.8128   50.4783  131.6042 O   0  0  0  0  0  0  0  0  0  0  0  0
    9.0471   48.2190  131.9439 N   0  0  0  0  0  0  0  0  0  0  0  0
    9.2516   47.2702  131.5108 H   0  0  0  0  0  0  0  0  0  0  0  0
    8.7186   48.3423  133.3417 C   0  0  0  0  0  0  0  0  0  0  0  0
    9.8522   48.2085  134.2683 C   0  0  0  0  0  0  0  0  0  0  0  0
   10.9822   48.9869  134.2699 C   0  0  0  0  0  0  0  0  0  0  0  0
   11.9997   48.8001  135.2112 C   0  0  0  0  0  0  0  0  0  0  0  0
   11.9260   47.8347  136.1811 C   0  0  0  0  0  0  0  0  0  0  0  0
   10.8022   47.0481  136.1941 C   0  0  0  0  0  0  0  0  0  0  0  0
    9.8017   47.2275  135.2722 C   0  0  0  0  0  0  0  0  0  0  0  0
    8.3721   46.2016  135.3156 Cl  0  0  0  0  0  0  0  0  0  0  0  0
    8.2944   49.5989  128.7340 C   0  0  0  0  0  0  0  0  0  0  0  0
    7.0979   48.7845  128.9602 C   0  0  0  0  0  0  0  0  0  0  0  0
    5.9465   49.2965  129.5212 C   0  0  0  0  0  0  0  0  0  0  0  0
    4.7965   48.5799  129.7167 C   0  0  0  0  0  0  0  0  0  0  0  0
    4.8172   47.2605  129.3175 C   0  0  0  0  0  0  0  0  0  0  0  0
    5.9486   46.7186  128.7547 C   0  0  0  0  0  0  0  0  0  0  0  0
    7.0887   47.4592  128.5699 C   0  0  0  0  0  0  0  0  0  0  0  0
 17 18  1  0  0  0
 18 15  1  0  0  0
 15 16  1  0  0  0
 15 10  1  0  0  0
 10 11  1  0  0  0
 11 12  1  0  0  0
 12 13  1  0  0  0
 13 14  2  0  0  0
 11  6  1  0  0  0
  6  7  2  0  0  0
  6  8  1  0  0  0
  8  5  1  0  0  0
  5 19  1  0  0  0
 19 20  1  0  0  0
 19 21  1  0  0  0
  5  1  1  0  0  0
  1  2  2  0  0  0
  1  3  1  0  0  0
  3 22  1  0  0  0
 22 35  1  0  0  0
 35 36  1  0  0  0
 36 37  2  0  0  0
 37 38  1  0  0  0
 38 39  2  0  0  0
 39 40  1  0  0  0
 40 41  2  0  0  0
 22 23  1  0  0  0
 23 24  2  0  0  0
 23 25  1  0  0  0
 25 27  1  0  0  0
 27 28  1  0  0  0
 28 29  2  0  0  0
 29 30  1  0  0  0
 30 31  2  0  0  0
 31 32  1  0  0  0
 32 33  2  0  0  0
 33 34  1  0  0  0
 13 10  1  0  0  0
 41 36  1  0  0  0
 33 28  1  0  0  0
  8  9  1  0  0  0
  3  4  1  0  0  0
 25 26  1  0  0  0
M  END
> <minimizedAffinity>
16.56534

> <CNNscore>
0.5074518919

> <CNNaffinity>
7.6117210388

> <CNN_VS>
3.8625822067

> <CNNaffinity_variance>
0.9463499188

$$$$
[H]c1c([H])c([H])c(C([H])([H])[C@@]([H])(C(=O)N([H])C([H])([H])c2c([H])c([H])c([H])c([H])c2Cl)N([H])C(=O)[C@@]([H])(N([H])C(=O)[C@]2([H])OC(=O)[C@@]2([H])[C@@]([H])(C([H])([H])[H])C([H])([H])C([H])([H])[H])C([H])(C([H])([H])[H])C([H])([H])[H])c([H])c1[H]


 41 43  0  0  0  0  0  0  0  0999 V2000
   10.8468   47.8294  131.6626 C   0  0  0  0  0  0  0  0  0  0  0  0
   11.3068   47.4865  132.7875 O   0  0  0  0  0  0  0  0  0  0  0  0
    9.6318   48.5212  131.6474 N   0  0  0  0  0  0  0  0  0  0  0  0
    9.2043   48.8286  130.7668 H   0  0  0  0  0  0  0  0  0  0  0  0
   11.6382   47.4655  130.4821 C   0  0  0  0  0  0  0  0  0  0  0  0
   10.4281   45.2957  130.0924 C   0  0  0  0  0  0  0  0  0  0  0  0
    9.3372   45.9011  130.2076 O   0  0  0  0  0  0  0  0  0  0  0  0
   11.6270   46.0397  130.2240 N   0  0  0  0  0  0  0  0  0  0  0  0
   12.5338   45.5465  130.1326 H   0  0  0  0  0  0  0  0  0  0  0  0
    9.0101   43.2784  129.5934 C   0  0  0  0  0  0  0  0  0  0  0  0
   10.3912   43.8422  129.8259 C   0  0  0  0  0  0  0  0  0  0  0  0
   10.6547   43.4883  128.4799 O   0  0  0  0  0  0  0  0  0  0  0  0
    9.3095   43.4240  128.1708 C   0  0  0  0  0  0  0  0  0  0  0  0
    8.6555   43.4726  127.1140 O   0  0  0  0  0  0  0  0  0  0  0  0
    8.8240   41.8579  130.0786 C   0  0  0  0  0  0  0  0  0  0  0  0
    9.7568   40.9722  129.2844 C   0  0  0  0  0  0  0  0  0  0  0  0
   10.5597   41.3852  131.8150 C   0  0  0  0  0  0  0  0  0  0  0  0
    9.1113   41.7349  131.5588 C   0  0  0  0  0  0  0  0  0  0  0  0
   11.2830   48.2120  129.2380 C   0  0  0  0  0  0  0  0  0  0  0  0
   10.4824   49.4621  129.4667 C   0  0  0  0  0  0  0  0  0  0  0  0
   10.4197   47.2827  128.3811 C   0  0  0  0  0  0  0  0  0  0  0  0
    8.8989   48.8460  132.8927 C   0  0  0  0  0  0  0  0  0  0  0  0
    8.6861   47.5761  133.5967 C   0  0  0  0  0  0  0  0  0  0  0  0
    8.4323   47.5652  134.8350 O   0  0  0  0  0  0  0  0  0  0  0  0
    8.7538   46.3488  132.9137 N   0  0  0  0  0  0  0  0  0  0  0  0
    8.9448   46.3697  131.8683 H   0  0  0  0  0  0  0  0  0  0  0  0
    8.5443   45.1021  133.6057 C   0  0  0  0  0  0  0  0  0  0  0  0
    9.6259   44.6987  134.5162 C   0  0  0  0  0  0  0  0  0  0  0  0
    9.5817   44.7523  135.8866 C   0  0  0  0  0  0  0  0  0  0  0  0
   10.6551   44.3202  136.6721 C   0  0  0  0  0  0  0  0  0  0  0  0
   11.8059   43.8203  136.1209 C   0  0  0  0  0  0  0  0  0  0  0  0
   11.8662   43.7590  134.7518 C   0  0  0  0  0  0  0  0  0  0  0  0
   10.8156   44.1824  133.9771 C   0  0  0  0  0  0  0  0  0  0  0  0
   10.9241   44.0907  132.2227 Cl  0  0  0  0  0  0  0  0  0  0  0  0
    7.6284   49.5571  132.4716 C   0  0  0  0  0  0  0  0  0  0  0  0
    7.3917   49.4351  131.0311 C   0  0  0  0  0  0  0  0  0  0  0  0
    7.1652   48.2215  130.4160 C   0  0  0  0  0  0  0  0  0  0  0  0
    6.9049   48.0676  129.0809 C   0  0  0  0  0  0  0  0  0  0  0  0
    6.8726   49.2185  128.3227 C   0  0  0  0  0  0  0  0  0  0  0  0
    7.0940   50.4446  128.9042 C   0  0  0  0  0  0  0  0  0  0  0  0
    7.3531   50.5711  130.2456 C   0  0  0  0  0  0  0  0  0  0  0  0
 17 18  1  0  0  0
 18 15  1  0  0  0
 15 16  1  0  0  0
 15 10  1  0  0  0
 10 11  1  0  0  0
 11 12  1  0  0  0
 12 13  1  0  0  0
 13 14  2  0  0  0
 11  6  1  0  0  0
  6  7  2  0  0  0
  6  8  1  0  0  0
  8  5  1  0  0  0
  5 19  1  0  0  0
 19 20  1  0  0  0
 19 21  1  0  0  0
  5  1  1  0  0  0
  1  2  2  0  0  0
  1  3  1  0  0  0
  3 22  1  0  0  0
 22 35  1  0  0  0
 35 36  1  0  0  0
 36 37  2  0  0  0
 37 38  1  0  0  0
 38 39  2  0  0  0
 39 40  1  0  0  0
 40 41  2  0  0  0
 22 23  1  0  0  0
 23 24  2  0  0  0
 23 25  1  0  0  0
 25 27  1  0  0  0
 27 28  1  0  0  0
 28 29  2  0  0  0
 29 30  1  0  0  0
 30 31  2  0  0  0
 31 32  1  0  0  0
 32 33  2  0  0  0
 33 34  1  0  0  0
 13 10  1  0  0  0
 41 36  1  0  0  0
 33 28  1  0  0  0
  8  9  1  0  0  0
  3  4  1  0  0  0
 25 26  1  0  0  0
M  END
> <minimizedAffinity>
11.32526

> <CNNscore>
0.4181346595

> <CNNaffinity>
7.4175705910

> <CNN_VS>
3.1015434265

> <CNNaffinity_variance>
0.5653878450

$$$$
[H]c1c([H])c([H])c(C([H])([H])[C@@]([H])(C(=O)N([H])C([H])([H])c2c([H])c([H])c([H])c([H])c2Cl)N([H])C(=O)[C@@]([H])(N([H])C(=O)[C@]2([H])OC(=O)[C@@]2([H])[C@@]([H])(C([H])([H])[H])C([H])([H])C([H])([H])[H])C([H])(C([H])([H])[H])C([H])([H])[H])c([H])c1[H]


 41 43  0  0  0  0  0  0  0  0999 V2000
   11.8355   45.4187  133.3795 C   0  0  0  0  0  0  0  0  0  0  0  0
   13.0279   45.1588  133.7037 O   0  0  0  0  0  0  0  0  0  0  0  0
   11.5101   45.3595  132.0209 N   0  0  0  0  0  0  0  0  0  0  0  0
   10.5591   45.5590  131.6913 H   0  0  0  0  0  0  0  0  0  0  0  0
   10.9100   45.7573  134.4663 C   0  0  0  0  0  0  0  0  0  0  0  0
    9.0135   46.3778  132.9358 C   0  0  0  0  0  0  0  0  0  0  0  0
    9.8012   47.0938  132.2751 O   0  0  0  0  0  0  0  0  0  0  0  0
    9.5219   45.6782  134.0585 N   0  0  0  0  0  0  0  0  0  0  0  0
    8.8768   45.0856  134.6122 H   0  0  0  0  0  0  0  0  0  0  0  0
    7.3611   46.7589  131.0776 C   0  0  0  0  0  0  0  0  0  0  0  0
    7.6031   46.3103  132.4986 C   0  0  0  0  0  0  0  0  0  0  0  0
    7.1881   45.0289  132.0603 O   0  0  0  0  0  0  0  0  0  0  0  0
    7.4243   45.3400  130.7348 C   0  0  0  0  0  0  0  0  0  0  0  0
    7.6095   44.6709  129.7030 O   0  0  0  0  0  0  0  0  0  0  0  0
    6.0224   47.4255  130.8509 C   0  0  0  0  0  0  0  0  0  0  0  0
    6.2349   48.9211  130.9091 C   0  0  0  0  0  0  0  0  0  0  0  0
    3.9439   46.7397  129.6421 C   0  0  0  0  0  0  0  0  0  0  0  0
    5.4230   47.0285  129.5198 C   0  0  0  0  0  0  0  0  0  0  0  0
   11.1166   44.9820  135.7262 C   0  0  0  0  0  0  0  0  0  0  0  0
   11.2348   43.4970  135.5338 C   0  0  0  0  0  0  0  0  0  0  0  0
    9.8905   45.2185  136.6117 C   0  0  0  0  0  0  0  0  0  0  0  0
   12.5129   45.0087  130.9890 C   0  0  0  0  0  0  0  0  0  0  0  0
   12.0463   45.6050  129.7319 C   0  0  0  0  0  0  0  0  0  0  0  0
   12.7242   45.4779  128.6725 O   0  0  0  0  0  0  0  0  0  0  0  0
   10.8386   46.3232  129.6749 N   0  0  0  0  0  0  0  0  0  0  0  0
   10.2645   46.4048  130.5656 H   0  0  0  0  0  0  0  0  0  0  0  0
   10.3810   46.9082  128.4399 C   0  0  0  0  0  0  0  0  0  0  0  0
    9.3668   47.9632  128.5814 C   0  0  0  0  0  0  0  0  0  0  0  0
    8.2020   48.0568  127.8622 C   0  0  0  0  0  0  0  0  0  0  0  0
    7.2826   49.0865  128.0868 C   0  0  0  0  0  0  0  0  0  0  0  0
    7.4910   50.0550  129.0336 C   0  0  0  0  0  0  0  0  0  0  0  0
    8.6506   49.9756  129.7623 C   0  0  0  0  0  0  0  0  0  0  0  0
    9.5558   48.9674  129.5450 C   0  0  0  0  0  0  0  0  0  0  0  0
   11.0345   48.8933  130.4968 Cl  0  0  0  0  0  0  0  0  0  0  0  0
   12.6062   43.4961  130.9759 C   0  0  0  0  0  0  0  0  0  0  0  0
   11.2817   42.8722  130.9255 C   0  0  0  0  0  0  0  0  0  0  0  0
   10.4998   42.8806  129.7892 C   0  0  0  0  0  0  0  0  0  0  0  0
    9.2739   42.2797  129.6895 C   0  0  0  0  0  0  0  0  0  0  0  0
    8.8130   41.6293  130.8143 C   0  0  0  0  0  0  0  0  0  0  0  0
    9.5672   41.6018  131.9636 C   0  0  0  0  0  0  0  0  0  0  0  0
   10.7935   42.2127  132.0371 C   0  0  0  0  0  0  0  0  0  0  0  0
 17 18  1  0  0  0
 18 15  1  0  0  0
 15 16  1  0  0  0
 15 10  1  0  0  0
 10 11  1  0  0  0
 11 12  1  0  0  0
 12 13  1  0  0  0
 13 14  2  0  0  0
 11  6  1  0  0  0
  6  7  2  0  0  0
  6  8  1  0  0  0
  8  5  1  0  0  0
  5 19  1  0  0  0
 19 20  1  0  0  0
 19 21  1  0  0  0
  5  1  1  0  0  0
  1  2  2  0  0  0
  1  3  1  0  0  0
  3 22  1  0  0  0
 22 35  1  0  0  0
 35 36  1  0  0  0
 36 37  2  0  0  0
 37 38  1  0  0  0
 38 39  2  0  0  0
 39 40  1  0  0  0
 40 41  2  0  0  0
 22 23  1  0  0  0
 23 24  2  0  0  0
 23 25  1  0  0  0
 25 27  1  0  0  0
 27 28  1  0  0  0
 28 29  2  0  0  0
 29 30  1  0  0  0
 30 31  2  0  0  0
 31 32  1  0  0  0
 32 33  2  0  0  0
 33 34  1  0  0  0
 13 10  1  0  0  0
 41 36  1  0  0  0
 33 28  1  0  0  0
  8  9  1  0  0  0
  3  4  1  0  0  0
 25 26  1  0  0  0
M  END
> <minimizedAffinity>
8.91815

> <CNNscore>
0.3901635706

> <CNNaffinity>
7.3273720741

> <CNN_VS>
2.8588736057

> <CNNaffinity_variance>
0.5076937675

$$$$
[H]c1c([H])c([H])c(C([H])([H])[C@@]([H])(C(=O)N([H])C([H])([H])c2c([H])c([H])c([H])c([H])c2Cl)N([H])C(=O)[C@@]([H])(N([H])C(=O)[C@]2([H])OC(=O)[C@@]2([H])[C@@]([H])(C([H])([H])[H])C([H])([H])C([H])([H])[H])C([H])(C([H])([H])[H])C([H])([H])[H])c([H])c1[H]


 41 43  0  0  0  0  0  0  0  0999 V2000
    8.3489   48.0492  130.4408 C   0  0  0  0  0  0  0  0  0  0  0  0
    7.9518   48.0855  131.6389 O   0  0  0  0  0  0  0  0  0  0  0  0
    9.4379   48.8567  130.0986 N   0  0  0  0  0  0  0  0  0  0  0  0
    9.8099   48.8730  129.1424 H   0  0  0  0  0  0  0  0  0  0  0  0
    7.6240   47.1592  129.5271 C   0  0  0  0  0  0  0  0  0  0  0  0
    8.8693   45.2345  130.5610 C   0  0  0  0  0  0  0  0  0  0  0  0
    8.9483   45.8806  131.6316 O   0  0  0  0  0  0  0  0  0  0  0  0
    8.2095   45.8355  129.4603 N   0  0  0  0  0  0  0  0  0  0  0  0
    8.1418   45.3092  128.5701 H   0  0  0  0  0  0  0  0  0  0  0  0
    9.0360   43.0375  129.3468 C   0  0  0  0  0  0  0  0  0  0  0  0
    9.4711   43.8851  130.5180 C   0  0  0  0  0  0  0  0  0  0  0  0
   10.7648   43.8405  129.9427 O   0  0  0  0  0  0  0  0  0  0  0  0
   10.2664   43.4908  128.7023 C   0  0  0  0  0  0  0  0  0  0  0  0
   10.7044   43.5491  127.5398 O   0  0  0  0  0  0  0  0  0  0  0  0
    8.9614   41.5555  129.6402 C   0  0  0  0  0  0  0  0  0  0  0  0
   10.3297   41.1056  130.0991 C   0  0  0  0  0  0  0  0  0  0  0  0
    7.8068   42.3753  131.7009 C   0  0  0  0  0  0  0  0  0  0  0  0
    7.9229   41.2505  130.6972 C   0  0  0  0  0  0  0  0  0  0  0  0
    6.1572   47.0556  129.7896 C   0  0  0  0  0  0  0  0  0  0  0  0
    5.6705   45.6638  130.0764 C   0  0  0  0  0  0  0  0  0  0  0  0
    5.4347   47.5265  128.5248 C   0  0  0  0  0  0  0  0  0  0  0  0
   10.1102   49.7279  131.0899 C   0  0  0  0  0  0  0  0  0  0  0  0
   10.7905   48.8371  132.0369 C   0  0  0  0  0  0  0  0  0  0  0  0
   11.5835   47.9451  131.6204 O   0  0  0  0  0  0  0  0  0  0  0  0
   10.5819   48.9570  133.4224 N   0  0  0  0  0  0  0  0  0  0  0  0
    9.9313   49.7250  133.7641 H   0  0  0  0  0  0  0  0  0  0  0  0
   11.2508   48.0820  134.3519 C   0  0  0  0  0  0  0  0  0  0  0  0
   10.8480   46.6695  134.2872 C   0  0  0  0  0  0  0  0  0  0  0  0
   11.6190   45.6371  133.8153 C   0  0  0  0  0  0  0  0  0  0  0  0
   11.1572   44.3169  133.8178 C   0  0  0  0  0  0  0  0  0  0  0  0
    9.9155   43.9808  134.2901 C   0  0  0  0  0  0  0  0  0  0  0  0
    9.1321   45.0012  134.7664 C   0  0  0  0  0  0  0  0  0  0  0  0
    9.5808   46.2981  134.7654 C   0  0  0  0  0  0  0  0  0  0  0  0
    8.5513   47.5849  135.3836 Cl  0  0  0  0  0  0  0  0  0  0  0  0
    9.0299   50.5969  131.7021 C   0  0  0  0  0  0  0  0  0  0  0  0
    7.8440   50.6708  130.8452 C   0  0  0  0  0  0  0  0  0  0  0  0
    6.5612   50.5735  131.3428 C   0  0  0  0  0  0  0  0  0  0  0  0
    5.4271   50.6730  130.5826 C   0  0  0  0  0  0  0  0  0  0  0  0
    5.6070   50.8843  129.2322 C   0  0  0  0  0  0  0  0  0  0  0  0
    6.8721   50.9861  128.7035 C   0  0  0  0  0  0  0  0  0  0  0  0
    7.9929   50.8826  129.4881 C   0  0  0  0  0  0  0  0  0  0  0  0
 17 18  1  0  0  0
 18 15  1  0  0  0
 15 16  1  0  0  0
 15 10  1  0  0  0
 10 11  1  0  0  0
 11 12  1  0  0  0
 12 13  1  0  0  0
 13 14  2  0  0  0
 11  6  1  0  0  0
  6  7  2  0  0  0
  6  8  1  0  0  0
  8  5  1  0  0  0
  5 19  1  0  0  0
 19 20  1  0  0  0
 19 21  1  0  0  0
  5  1  1  0  0  0
  1  2  2  0  0  0
  1  3  1  0  0  0
  3 22  1  0  0  0
 22 35  1  0  0  0
 35 36  1  0  0  0
 36 37  2  0  0  0
 37 38  1  0  0  0
 38 39  2  0  0  0
 39 40  1  0  0  0
 40 41  2  0  0  0
 22 23  1  0  0  0
 23 24  2  0  0  0
 23 25  1  0  0  0
 25 27  1  0  0  0
 27 28  1  0  0  0
 28 29  2  0  0  0
 29 30  1  0  0  0
 30 31  2  0  0  0
 31 32  1  0  0  0
 32 33  2  0  0  0
 33 34  1  0  0  0
 13 10  1  0  0  0
 41 36  1  0  0  0
 33 28  1  0  0  0
  8  9  1  0  0  0
  3  4  1  0  0  0
 25 26  1  0  0  0
M  END
> <minimizedAffinity>
8.14644

> <CNNscore>
0.3727349043

> <CNNaffinity>
7.3546457291

> <CNN_VS>
2.7413332462

> <CNNaffinity_variance>
0.2393507212

$$$$
[H]c1c([H])c([H])c(C([H])([H])[C@@]([H])(C(=O)N([H])C([H])([H])c2c([H])c([H])c([H])c([H])c2Cl)N([H])C(=O)[C@@]([H])(N([H])C(=O)[C@]2([H])OC(=O)[C@@]2([H])[C@@]([H])(C([H])([H])[H])C([H])([H])C([H])([H])[H])C([H])(C([H])([H])[H])C([H])([H])[H])c([H])c1[H]


 41 43  0  0  0  0  0  0  0  0999 V2000
   10.2487   45.2364  133.6760 C   0  0  0  0  0  0  0  0  0  0  0  0
   10.6766   44.7853  134.7752 O   0  0  0  0  0  0  0  0  0  0  0  0
   10.9042   44.8242  132.5118 N   0  0  0  0  0  0  0  0  0  0  0  0
   10.6059   45.1534  131.5869 H   0  0  0  0  0  0  0  0  0  0  0  0
    9.1024   46.1502  133.7339 C   0  0  0  0  0  0  0  0  0  0  0  0
    9.2576   46.9938  131.3699 C   0  0  0  0  0  0  0  0  0  0  0  0
    9.2256   45.8098  130.9614 O   0  0  0  0  0  0  0  0  0  0  0  0
    9.1997   47.2248  132.7668 N   0  0  0  0  0  0  0  0  0  0  0  0
    9.2281   48.2010  133.1135 H   0  0  0  0  0  0  0  0  0  0  0  0
    8.2984   49.1458  130.4879 C   0  0  0  0  0  0  0  0  0  0  0  0
    9.3536   48.0731  130.3645 C   0  0  0  0  0  0  0  0  0  0  0  0
   10.2849   49.0906  130.6869 O   0  0  0  0  0  0  0  0  0  0  0  0
    9.3052   49.8966  131.2345 C   0  0  0  0  0  0  0  0  0  0  0  0
    9.3084   50.8538  132.0286 O   0  0  0  0  0  0  0  0  0  0  0  0
    7.8711   49.7580  129.1724 C   0  0  0  0  0  0  0  0  0  0  0  0
    7.2499   48.6643  128.3337 C   0  0  0  0  0  0  0  0  0  0  0  0
    5.7525   50.4751  130.2899 C   0  0  0  0  0  0  0  0  0  0  0  0
    6.8870   50.8881  129.3798 C   0  0  0  0  0  0  0  0  0  0  0  0
    7.7688   45.4862  133.6263 C   0  0  0  0  0  0  0  0  0  0  0  0
    7.8240   43.9909  133.4957 C   0  0  0  0  0  0  0  0  0  0  0  0
    7.0972   46.0179  132.3576 C   0  0  0  0  0  0  0  0  0  0  0  0
   12.0581   43.8964  132.5483 C   0  0  0  0  0  0  0  0  0  0  0  0
   12.9146   44.3368  133.6555 C   0  0  0  0  0  0  0  0  0  0  0  0
   13.2762   43.5194  134.5495 O   0  0  0  0  0  0  0  0  0  0  0  0
   13.3553   45.6691  133.7451 N   0  0  0  0  0  0  0  0  0  0  0  0
   13.0650   46.3431  132.9762 H   0  0  0  0  0  0  0  0  0  0  0  0
   14.1968   46.1007  134.8326 C   0  0  0  0  0  0  0  0  0  0  0  0
   13.8040   47.3673  135.4674 C   0  0  0  0  0  0  0  0  0  0  0  0
   12.7114   48.1267  135.1323 C   0  0  0  0  0  0  0  0  0  0  0  0
   12.4034   49.3087  135.8136 C   0  0  0  0  0  0  0  0  0  0  0  0
   13.1707   49.7729  136.8499 C   0  0  0  0  0  0  0  0  0  0  0  0
   14.2666   49.0249  137.1982 C   0  0  0  0  0  0  0  0  0  0  0  0
   14.5730   47.8649  136.5322 C   0  0  0  0  0  0  0  0  0  0  0  0
   15.9863   46.9276  137.0035 Cl  0  0  0  0  0  0  0  0  0  0  0  0
   12.7074   43.9627  131.1805 C   0  0  0  0  0  0  0  0  0  0  0  0
   11.7169   43.8654  130.1056 C   0  0  0  0  0  0  0  0  0  0  0  0
   10.6610   42.9789  130.1470 C   0  0  0  0  0  0  0  0  0  0  0  0
    9.6949   42.8810  129.1820 C   0  0  0  0  0  0  0  0  0  0  0  0
    9.8083   43.7371  128.1074 C   0  0  0  0  0  0  0  0  0  0  0  0
   10.8486   44.6332  128.0349 C   0  0  0  0  0  0  0  0  0  0  0  0
   11.8042   44.7108  129.0163 C   0  0  0  0  0  0  0  0  0  0  0  0
 17 18  1  0  0  0
 18 15  1  0  0  0
 15 16  1  0  0  0
 15 10  1  0  0  0
 10 11  1  0  0  0
 11 12  1  0  0  0
 12 13  1  0  0  0
 13 14  2  0  0  0
 11  6  1  0  0  0
  6  7  2  0  0  0
  6  8  1  0  0  0
  8  5  1  0  0  0
  5 19  1  0  0  0
 19 20  1  0  0  0
 19 21  1  0  0  0
  5  1  1  0  0  0
  1  2  2  0  0  0
  1  3  1  0  0  0
  3 22  1  0  0  0
 22 35  1  0  0  0
 35 36  1  0  0  0
 36 37  2  0  0  0
 37 38  1  0  0  0
 38 39  2  0  0  0
 39 40  1  0  0  0
 40 41  2  0  0  0
 22 23  1  0  0  0
 23 24  2  0  0  0
 23 25  1  0  0  0
 25 27  1  0  0  0
 27 28  1  0  0  0
 28 29  2  0  0  0
 29 30  1  0  0  0
 30 31  2  0  0  0
 31 32  1  0  0  0
 32 33  2  0  0  0
 33 34  1  0  0  0
 13 10  1  0  0  0
 41 36  1  0  0  0
 33 28  1  0  0  0
  8  9  1  0  0  0
  3  4  1  0  0  0
 25 26  1  0  0  0
M  END
> <minimizedAffinity>
8.44208

> <CNNscore>
0.3333597183

> <CNNaffinity>
7.4602189064

> <CNN_VS>
2.4869365692

> <CNNaffinity_variance>
0.3085454404

$$$$
[H]c1c([H])c([H])c(C([H])([H])[C@@]([H])(C(=O)N([H])C([H])([H])c2c([H])c([H])c([H])c([H])c2Cl)N([H])C(=O)[C@@]([H])(N([H])C(=O)[C@]2([H])OC(=O)[C@@]2([H])[C@@]([H])(C([H])([H])[H])C([H])([H])C([H])([H])[H])C([H])(C([H])([H])[H])C([H])([H])[H])c([H])c1[H]


 41 43  0  0  0  0  0  0  0  0999 V2000
    9.7923   48.7157  129.9406 C   0  0  0  0  0  0  0  0  0  0  0  0
   10.7168   49.5080  129.6057 O   0  0  0  0  0  0  0  0  0  0  0  0
    9.4589   48.6516  131.2970 N   0  0  0  0  0  0  0  0  0  0  0  0
    8.7168   48.0287  131.6348 H   0  0  0  0  0  0  0  0  0  0  0  0
    9.1600   47.9407  128.8673 C   0  0  0  0  0  0  0  0  0  0  0  0
    9.1948   45.7640  130.1262 C   0  0  0  0  0  0  0  0  0  0  0  0
    8.6964   46.3467  131.1171 O   0  0  0  0  0  0  0  0  0  0  0  0
    9.4524   46.5245  128.9585 N   0  0  0  0  0  0  0  0  0  0  0  0
    9.8668   46.0511  128.1351 H   0  0  0  0  0  0  0  0  0  0  0  0
    9.7648   43.6248  128.9314 C   0  0  0  0  0  0  0  0  0  0  0  0
    9.4812   44.3185  130.2420 C   0  0  0  0  0  0  0  0  0  0  0  0
   10.8226   44.0141  130.5801 O   0  0  0  0  0  0  0  0  0  0  0  0
   11.1752   43.8222  129.2579 C   0  0  0  0  0  0  0  0  0  0  0  0
   12.2515   43.8229  128.6348 O   0  0  0  0  0  0  0  0  0  0  0  0
    9.3044   42.1852  128.8727 C   0  0  0  0  0  0  0  0  0  0  0  0
   10.4257   41.3651  128.2764 C   0  0  0  0  0  0  0  0  0  0  0  0
   10.1323   41.0426  130.9368 C   0  0  0  0  0  0  0  0  0  0  0  0
    8.9396   41.6627  130.2448 C   0  0  0  0  0  0  0  0  0  0  0  0
    7.6873   48.1499  128.7306 C   0  0  0  0  0  0  0  0  0  0  0  0
    6.8935   46.8908  128.5295 C   0  0  0  0  0  0  0  0  0  0  0  0
    7.4648   49.0179  127.4895 C   0  0  0  0  0  0  0  0  0  0  0  0
   10.1539   49.4729  132.3149 C   0  0  0  0  0  0  0  0  0  0  0  0
   10.3455   48.6122  133.4878 C   0  0  0  0  0  0  0  0  0  0  0  0
   11.3360   48.7850  134.2539 O   0  0  0  0  0  0  0  0  0  0  0  0
    9.4344   47.5842  133.7889 N   0  0  0  0  0  0  0  0  0  0  0  0
    8.5924   47.4618  133.1519 H   0  0  0  0  0  0  0  0  0  0  0  0
    9.6230   46.7396  134.9412 C   0  0  0  0  0  0  0  0  0  0  0  0
   10.1161   45.3846  134.6540 C   0  0  0  0  0  0  0  0  0  0  0  0
   11.3446   44.8869  135.0088 C   0  0  0  0  0  0  0  0  0  0  0  0
   11.7157   43.5711  134.7133 C   0  0  0  0  0  0  0  0  0  0  0  0
   10.8775   42.7083  134.0568 C   0  0  0  0  0  0  0  0  0  0  0  0
    9.6448   43.1899  133.6956 C   0  0  0  0  0  0  0  0  0  0  0  0
    9.2767   44.4803  133.9830 C   0  0  0  0  0  0  0  0  0  0  0  0
    7.6877   45.0681  133.5061 Cl  0  0  0  0  0  0  0  0  0  0  0  0
    9.2810   50.6880  132.5569 C   0  0  0  0  0  0  0  0  0  0  0  0
    8.1606   50.7462  131.6149 C   0  0  0  0  0  0  0  0  0  0  0  0
    7.1300   49.8297  131.6294 C   0  0  0  0  0  0  0  0  0  0  0  0
    6.0482   49.8688  130.7914 C   0  0  0  0  0  0  0  0  0  0  0  0
    6.0107   50.9038  129.8815 C   0  0  0  0  0  0  0  0  0  0  0  0
    7.0218   51.8346  129.8402 C   0  0  0  0  0  0  0  0  0  0  0  0
    8.0957   51.7722  130.6919 C   0  0  0  0  0  0  0  0  0  0  0  0
 17 18  1  0  0  0
 18 15  1  0  0  0
 15 16  1  0  0  0
 15 10  1  0  0  0
 10 11  1  0  0  0
 11 12  1  0  0  0
 12 13  1  0  0  0
 13 14  2  0  0  0
 11  6  1  0  0  0
  6  7  2  0  0  0
  6  8  1  0  0  0
  8  5  1  0  0  0
  5 19  1  0  0  0
 19 20  1  0  0  0
 19 21  1  0  0  0
  5  1  1  0  0  0
  1  2  2  0  0  0
  1  3  1  0  0  0
  3 22  1  0  0  0
 22 35  1  0  0  0
 35 36  1  0  0  0
 36 37  2  0  0  0
 37 38  1  0  0  0
 38 39  2  0  0  0
 39 40  1  0  0  0
 40 41  2  0  0  0
 22 23  1  0  0  0
 23 24  2  0  0  0
 23 25  1  0  0  0
 25 27  1  0  0  0
 27 28  1  0  0  0
 28 29  2  0  0  0
 29 30  1  0  0  0
 30 31  2  0  0  0
 31 32  1  0  0  0
 32 33  2  0  0  0
 33 34  1  0  0  0
 13 10  1  0  0  0
 41 36  1  0  0  0
 33 28  1  0  0  0
  8  9  1  0  0  0
  3  4  1  0  0  0
 25 26  1  0  0  0
M  END
> <minimizedAffinity>
11.09647

> <CNNscore>
0.3231348097

> <CNNaffinity>
7.3341941833

> <CNN_VS>
2.3699333668

> <CNNaffinity_variance>
0.2621266246

$$$$
[H]c1c([H])c([H])c(C([H])([H])[C@@]([H])(C(=O)N([H])C([H])([H])c2c([H])c([H])c([H])c([H])c2Cl)N([H])C(=O)[C@@]([H])(N([H])C(=O)[C@]2([H])OC(=O)[C@@]2([H])[C@@]([H])(C([H])([H])[H])C([H])([H])C([H])([H])[H])C([H])(C([H])([H])[H])C([H])([H])[H])c([H])c1[H]


 41 43  0  0  0  0  0  0  0  0999 V2000
    9.2798   47.8720  130.2196 C   0  0  0  0  0  0  0  0  0  0  0  0
    9.4291   49.1218  130.1177 O   0  0  0  0  0  0  0  0  0  0  0  0
    9.5119   47.2958  131.4722 N   0  0  0  0  0  0  0  0  0  0  0  0
    9.4076   46.2861  131.6223 H   0  0  0  0  0  0  0  0  0  0  0  0
    8.8760   47.1499  129.0080 C   0  0  0  0  0  0  0  0  0  0  0  0
    9.1355   44.9280  130.1569 C   0  0  0  0  0  0  0  0  0  0  0  0
    8.6138   45.4164  131.1860 O   0  0  0  0  0  0  0  0  0  0  0  0
    9.2944   45.7628  129.0228 N   0  0  0  0  0  0  0  0  0  0  0  0
    9.7273   45.3677  128.1682 H   0  0  0  0  0  0  0  0  0  0  0  0
    9.3807   42.8384  131.5361 C   0  0  0  0  0  0  0  0  0  0  0  0
    9.5512   43.5100  130.1948 C   0  0  0  0  0  0  0  0  0  0  0  0
    8.5710   42.6012  129.7259 O   0  0  0  0  0  0  0  0  0  0  0  0
    8.1136   42.3424  131.0038 C   0  0  0  0  0  0  0  0  0  0  0  0
    7.0593   41.8801  131.4744 O   0  0  0  0  0  0  0  0  0  0  0  0
   10.4177   41.7809  131.8430 C   0  0  0  0  0  0  0  0  0  0  0  0
   10.6822   41.0096  130.5700 C   0  0  0  0  0  0  0  0  0  0  0  0
   12.1125   43.5946  131.5442 C   0  0  0  0  0  0  0  0  0  0  0  0
   11.6983   42.3943  132.3649 C   0  0  0  0  0  0  0  0  0  0  0  0
    7.4208   47.2405  128.6832 C   0  0  0  0  0  0  0  0  0  0  0  0
    6.9893   48.5606  128.1113 C   0  0  0  0  0  0  0  0  0  0  0  0
    6.6503   47.0509  129.9923 C   0  0  0  0  0  0  0  0  0  0  0  0
    9.9191   48.1048  132.6441 C   0  0  0  0  0  0  0  0  0  0  0  0
   10.7590   47.2386  133.4794 C   0  0  0  0  0  0  0  0  0  0  0  0
   10.2343   46.3541  134.2146 O   0  0  0  0  0  0  0  0  0  0  0  0
   12.1593   47.3673  133.4781 N   0  0  0  0  0  0  0  0  0  0  0  0
   12.5922   48.0982  132.8392 H   0  0  0  0  0  0  0  0  0  0  0  0
   12.9834   46.5160  134.2984 C   0  0  0  0  0  0  0  0  0  0  0  0
   13.7114   47.1971  135.3790 C   0  0  0  0  0  0  0  0  0  0  0  0
   14.8900   46.7756  135.9411 C   0  0  0  0  0  0  0  0  0  0  0  0
   15.5237   47.5074  136.9505 C   0  0  0  0  0  0  0  0  0  0  0  0
   15.0068   48.6814  137.4326 C   0  0  0  0  0  0  0  0  0  0  0  0
   13.8291   49.1176  136.8807 C   0  0  0  0  0  0  0  0  0  0  0  0
   13.2036   48.4026  135.8905 C   0  0  0  0  0  0  0  0  0  0  0  0
   11.6933   48.9891  135.2028 Cl  0  0  0  0  0  0  0  0  0  0  0  0
    8.6404   48.5767  133.3069 C   0  0  0  0  0  0  0  0  0  0  0  0
    8.7830   49.9258  133.8596 C   0  0  0  0  0  0  0  0  0  0  0  0
    9.5512   50.8987  133.2547 C   0  0  0  0  0  0  0  0  0  0  0  0
    9.6823   52.1801  133.7182 C   0  0  0  0  0  0  0  0  0  0  0  0
    8.9900   52.4931  134.8686 C   0  0  0  0  0  0  0  0  0  0  0  0
    8.2151   51.5470  135.4969 C   0  0  0  0  0  0  0  0  0  0  0  0
    8.1008   50.2689  135.0110 C   0  0  0  0  0  0  0  0  0  0  0  0
 17 18  1  0  0  0
 18 15  1  0  0  0
 15 16  1  0  0  0
 15 10  1  0  0  0
 10 11  1  0  0  0
 11 12  1  0  0  0
 12 13  1  0  0  0
 13 14  2  0  0  0
 11  6  1  0  0  0
  6  7  2  0  0  0
  6  8  1  0  0  0
  8  5  1  0  0  0
  5 19  1  0  0  0
 19 20  1  0  0  0
 19 21  1  0  0  0
  5  1  1  0  0  0
  1  2  2  0  0  0
  1  3  1  0  0  0
  3 22  1  0  0  0
 22 35  1  0  0  0
 35 36  1  0  0  0
 36 37  2  0  0  0
 37 38  1  0  0  0
 38 39  2  0  0  0
 39 40  1  0  0  0
 40 41  2  0  0  0
 22 23  1  0  0  0
 23 24  2  0  0  0
 23 25  1  0  0  0
 25 27  1  0  0  0
 27 28  1  0  0  0
 28 29  2  0  0  0
 29 30  1  0  0  0
 30 31  2  0  0  0
 31 32  1  0  0  0
 32 33  2  0  0  0
 33 34  1  0  0  0
 13 10  1  0  0  0
 41 36  1  0  0  0
 33 28  1  0  0  0
  8  9  1  0  0  0
  3  4  1  0  0  0
 25 26  1  0  0  0
M  END
> <minimizedAffinity>
24.62268

> <CNNscore>
0.3120445013

> <CNNaffinity>
7.3983030319

> <CNN_VS>
2.3085997105

> <CNNaffinity_variance>
0.8419022560

$$$$
[H]c1c([H])c([H])c(C([H])([H])[C@@]([H])(C(=O)N([H])C([H])([H])c2c([H])c([H])c([H])c([H])c2Cl)N([H])C(=O)[C@@]([H])(N([H])C(=O)[C@]2([H])OC(=O)[C@@]2([H])[C@@]([H])(C([H])([H])[H])C([H])([H])C([H])([H])[H])C([H])(C([H])([H])[H])C([H])([H])[H])c([H])c1[H]


 41 43  0  0  0  0  0  0  0  0999 V2000
   10.5833   46.5612  132.9510 C   0  0  0  0  0  0  0  0  0  0  0  0
   10.4829   46.5033  134.2085 O   0  0  0  0  0  0  0  0  0  0  0  0
   10.9955   45.4036  132.2839 N   0  0  0  0  0  0  0  0  0  0  0  0
   11.0965   45.3838  131.2630 H   0  0  0  0  0  0  0  0  0  0  0  0
   10.2552   47.8427  132.3165 C   0  0  0  0  0  0  0  0  0  0  0  0
    8.2038   46.7483  131.3583 C   0  0  0  0  0  0  0  0  0  0  0  0
    8.1681   45.9825  132.3492 O   0  0  0  0  0  0  0  0  0  0  0  0
    9.2420   47.7104  131.2892 N   0  0  0  0  0  0  0  0  0  0  0  0
    9.2806   48.3462  130.4718 H   0  0  0  0  0  0  0  0  0  0  0  0
    6.8923   47.8387  129.5090 C   0  0  0  0  0  0  0  0  0  0  0  0
    7.1577   46.5966  130.3250 C   0  0  0  0  0  0  0  0  0  0  0  0
    7.6119   46.0179  129.1145 O   0  0  0  0  0  0  0  0  0  0  0  0
    7.7998   47.2534  128.5248 C   0  0  0  0  0  0  0  0  0  0  0  0
    8.4680   47.6653  127.5602 O   0  0  0  0  0  0  0  0  0  0  0  0
    5.4569   47.9974  129.0592 C   0  0  0  0  0  0  0  0  0  0  0  0
    4.6282   46.9612  129.7837 C   0  0  0  0  0  0  0  0  0  0  0  0
    5.9993   50.2598  129.9750 C   0  0  0  0  0  0  0  0  0  0  0  0
    4.9351   49.3876  129.3484 C   0  0  0  0  0  0  0  0  0  0  0  0
    9.8789   48.9316  133.2671 C   0  0  0  0  0  0  0  0  0  0  0  0
    8.6835   48.6273  134.1241 C   0  0  0  0  0  0  0  0  0  0  0  0
    9.5229   50.1628  132.4300 C   0  0  0  0  0  0  0  0  0  0  0  0
   11.3077   44.1501  133.0085 C   0  0  0  0  0  0  0  0  0  0  0  0
   12.3080   44.4928  134.0261 C   0  0  0  0  0  0  0  0  0  0  0  0
   12.4556   43.7654  135.0494 O   0  0  0  0  0  0  0  0  0  0  0  0
   13.1249   45.6288  133.8856 N   0  0  0  0  0  0  0  0  0  0  0  0
   13.0092   46.2211  133.0106 H   0  0  0  0  0  0  0  0  0  0  0  0
   14.1073   45.9644  134.8852 C   0  0  0  0  0  0  0  0  0  0  0  0
   13.8975   47.2503  135.5665 C   0  0  0  0  0  0  0  0  0  0  0  0
   12.8980   48.1492  135.2914 C   0  0  0  0  0  0  0  0  0  0  0  0
   12.7631   49.3392  136.0139 C   0  0  0  0  0  0  0  0  0  0  0  0
   13.6165   49.6730  137.0328 C   0  0  0  0  0  0  0  0  0  0  0  0
   14.6211   48.7846  137.3213 C   0  0  0  0  0  0  0  0  0  0  0  0
   14.7576   47.6161  136.6148 C   0  0  0  0  0  0  0  0  0  0  0  0
   16.0573   46.4968  137.0096 Cl  0  0  0  0  0  0  0  0  0  0  0  0
   11.7798   43.1563  131.9662 C   0  0  0  0  0  0  0  0  0  0  0  0
   11.3442   43.5357  130.6199 C   0  0  0  0  0  0  0  0  0  0  0  0
   10.1892   43.0453  130.0474 C   0  0  0  0  0  0  0  0  0  0  0  0
    9.7285   43.4010  128.8083 C   0  0  0  0  0  0  0  0  0  0  0  0
   10.4888   44.3121  128.1065 C   0  0  0  0  0  0  0  0  0  0  0  0
   11.6457   44.8209  128.6479 C   0  0  0  0  0  0  0  0  0  0  0  0
   12.0854   44.4472  129.8928 C   0  0  0  0  0  0  0  0  0  0  0  0
 17 18  1  0  0  0
 18 15  1  0  0  0
 15 16  1  0  0  0
 15 10  1  0  0  0
 10 11  1  0  0  0
 11 12  1  0  0  0
 12 13  1  0  0  0
 13 14  2  0  0  0
 11  6  1  0  0  0
  6  7  2  0  0  0
  6  8  1  0  0  0
  8  5  1  0  0  0
  5 19  1  0  0  0
 19 20  1  0  0  0
 19 21  1  0  0  0
  5  1  1  0  0  0
  1  2  2  0  0  0
  1  3  1  0  0  0
  3 22  1  0  0  0
 22 35  1  0  0  0
 35 36  1  0  0  0
 36 37  2  0  0  0
 37 38  1  0  0  0
 38 39  2  0  0  0
 39 40  1  0  0  0
 40 41  2  0  0  0
 22 23  1  0  0  0
 23 24  2  0  0  0
 23 25  1  0  0  0
 25 27  1  0  0  0
 27 28  1  0  0  0
 28 29  2  0  0  0
 29 30  1  0  0  0
 30 31  2  0  0  0
 31 32  1  0  0  0
 32 33  2  0  0  0
 33 34  1  0  0  0
 13 10  1  0  0  0
 41 36  1  0  0  0
 33 28  1  0  0  0
  8  9  1  0  0  0
  3  4  1  0  0  0
 25 26  1  0  0  0
M  END
> <minimizedAffinity>
8.71304

> <CNNscore>
0.3066162169

> <CNNaffinity>
7.4352364540

> <CNN_VS>
2.2797641754

> <CNNaffinity_variance>
0.3552125394

$$$$
[H]c1c([H])c([H])c(C([H])([H])[C@@]([H])(C(=O)N([H])C([H])([H])c2c([H])c([H])c([H])c([H])c2Cl)N([H])C(=O)[C@@]([H])(N([H])C(=O)[C@]2([H])OC(=O)[C@@]2([H])[C@@]([H])(C([H])([H])[H])C([H])([H])C([H])([H])[H])C([H])(C([H])([H])[H])C([H])([H])[H])c([H])c1[H]


 41 43  0  0  0  0  0  0  0  0999 V2000
   10.9538   46.4210  128.6556 C   0  0  0  0  0  0  0  0  0  0  0  0
   11.8514   47.1868  128.2057 O   0  0  0  0  0  0  0  0  0  0  0  0
    9.7836   47.0146  129.1386 N   0  0  0  0  0  0  0  0  0  0  0  0
    9.0157   46.4488  129.5171 H   0  0  0  0  0  0  0  0  0  0  0  0
   11.2321   44.9809  128.6248 C   0  0  0  0  0  0  0  0  0  0  0  0
   11.2749   44.5763  131.1064 C   0  0  0  0  0  0  0  0  0  0  0  0
   12.1706   45.4453  131.2173 O   0  0  0  0  0  0  0  0  0  0  0  0
   10.7633   44.2991  129.8143 N   0  0  0  0  0  0  0  0  0  0  0  0
   10.0241   43.5799  129.7132 H   0  0  0  0  0  0  0  0  0  0  0  0
    9.8241   42.7779  132.1013 C   0  0  0  0  0  0  0  0  0  0  0  0
   10.8106   43.8967  132.3343 C   0  0  0  0  0  0  0  0  0  0  0  0
   11.6868   42.8919  132.8127 O   0  0  0  0  0  0  0  0  0  0  0  0
   10.9817   41.8893  132.1747 C   0  0  0  0  0  0  0  0  0  0  0  0
   11.2470   40.7263  131.8229 O   0  0  0  0  0  0  0  0  0  0  0  0
    8.8001   42.6069  133.2014 C   0  0  0  0  0  0  0  0  0  0  0  0
    8.4121   43.9840  133.6898 C   0  0  0  0  0  0  0  0  0  0  0  0
    7.4467   41.9362  131.2089 C   0  0  0  0  0  0  0  0  0  0  0  0
    7.5807   41.8566  132.7128 C   0  0  0  0  0  0  0  0  0  0  0  0
   10.7379   44.2756  127.4043 C   0  0  0  0  0  0  0  0  0  0  0  0
    9.9755   45.1452  126.4459 C   0  0  0  0  0  0  0  0  0  0  0  0
    9.7760   43.1799  127.8707 C   0  0  0  0  0  0  0  0  0  0  0  0
    9.5885   48.4827  129.1317 C   0  0  0  0  0  0  0  0  0  0  0  0
    9.7129   48.9282  130.5244 C   0  0  0  0  0  0  0  0  0  0  0  0
    9.2942   50.0694  130.8714 O   0  0  0  0  0  0  0  0  0  0  0  0
   10.2923   48.0992  131.5014 N   0  0  0  0  0  0  0  0  0  0  0  0
   10.6201   47.1327  131.2046 H   0  0  0  0  0  0  0  0  0  0  0  0
   10.4136   48.5374  132.8690 C   0  0  0  0  0  0  0  0  0  0  0  0
   10.3749   47.4684  133.8777 C   0  0  0  0  0  0  0  0  0  0  0  0
   11.3700   46.5539  134.1148 C   0  0  0  0  0  0  0  0  0  0  0  0
   11.2525   45.5863  135.1179 C   0  0  0  0  0  0  0  0  0  0  0  0
   10.1430   45.4975  135.9174 C   0  0  0  0  0  0  0  0  0  0  0  0
    9.1390   46.4051  135.6940 C   0  0  0  0  0  0  0  0  0  0  0  0
    9.2497   47.3558  134.7106 C   0  0  0  0  0  0  0  0  0  0  0  0
    7.9436   48.5062  134.4490 Cl  0  0  0  0  0  0  0  0  0  0  0  0
    8.2315   48.7339  128.5053 C   0  0  0  0  0  0  0  0  0  0  0  0
    7.1922   47.8982  129.1116 C   0  0  0  0  0  0  0  0  0  0  0  0
    7.4746   46.9225  130.0449 C   0  0  0  0  0  0  0  0  0  0  0  0
    6.5311   46.1453  130.6610 C   0  0  0  0  0  0  0  0  0  0  0  0
    5.2183   46.3731  130.3072 C   0  0  0  0  0  0  0  0  0  0  0  0
    4.9020   47.3380  129.3802 C   0  0  0  0  0  0  0  0  0  0  0  0
    5.8676   48.1037  128.7770 C   0  0  0  0  0  0  0  0  0  0  0  0
 17 18  1  0  0  0
 18 15  1  0  0  0
 15 16  1  0  0  0
 15 10  1  0  0  0
 10 11  1  0  0  0
 11 12  1  0  0  0
 12 13  1  0  0  0
 13 14  2  0  0  0
 11  6  1  0  0  0
  6  7  2  0  0  0
  6  8  1  0  0  0
  8  5  1  0  0  0
  5 19  1  0  0  0
 19 20  1  0  0  0
 19 21  1  0  0  0
  5  1  1  0  0  0
  1  2  2  0  0  0
  1  3  1  0  0  0
  3 22  1  0  0  0
 22 35  1  0  0  0
 35 36  1  0  0  0
 36 37  2  0  0  0
 37 38  1  0  0  0
 38 39  2  0  0  0
 39 40  1  0  0  0
 40 41  2  0  0  0
 22 23  1  0  0  0
 23 24  2  0  0  0
 23 25  1  0  0  0
 25 27  1  0  0  0
 27 28  1  0  0  0
 28 29  2  0  0  0
 29 30  1  0  0  0
 30 31  2  0  0  0
 31 32  1  0  0  0
 32 33  2  0  0  0
 33 34  1  0  0  0
 13 10  1  0  0  0
 41 36  1  0  0  0
 33 28  1  0  0  0
  8  9  1  0  0  0
  3  4  1  0  0  0
 25 26  1  0  0  0
M  END
> <minimizedAffinity>
4.41594

> <CNNscore>
0.2954546511

> <CNNaffinity>
7.2890510559

> <CNN_VS>
2.1535840034

> <CNNaffinity_variance>
0.3756527901

$$$$
[H]c1c([H])c([H])c(/C(=C2/C(=O)N([H])c3c([H])c(C(=O)OC([H])([H])[H])c([H])c([H])c32)N([H])c2c([H])c([H])c(N(C(=O)C([H])([H])N3C([H])([H])C([H])([H])N(C([H])([H])[H])C([H])([H])C3([H])[H])C([H])([H])[H])c([H])c2[H])c([H])c1[H]


 42 46  0  0  0  0  0  0  0  0999 V2000
   10.4109   43.9867  131.3661 C   0  0  0  0  0  0  0  0  0  0  0  0
   10.4428   45.1016  132.1461 C   0  0  0  0  0  0  0  0  0  0  0  0
    9.6346   46.2161  131.8931 C   0  0  0  0  0  0  0  0  0  0  0  0
    8.7936   46.1535  130.8146 C   0  0  0  0  0  0  0  0  0  0  0  0
    7.8319   47.1162  130.3086 C   0  0  0  0  0  0  0  0  0  0  0  0
    7.6138   48.3450  130.6943 C   0  0  0  0  0  0  0  0  0  0  0  0
    7.2003   46.4523  129.1290 C   0  0  0  0  0  0  0  0  0  0  0  0
    6.3198   46.9247  128.4041 O   0  0  0  0  0  0  0  0  0  0  0  0
    7.7867   45.1701  128.9747 N   0  0  0  0  0  0  0  0  0  0  0  0
    8.7475   45.0184  130.0077 C   0  0  0  0  0  0  0  0  0  0  0  0
    9.5574   43.9382  130.2863 C   0  0  0  0  0  0  0  0  0  0  0  0
    7.5562   44.4500  128.2281 H   0  0  0  0  0  0  0  0  0  0  0  0
    8.4230   49.0643  131.6288 C   0  0  0  0  0  0  0  0  0  0  0  0
    9.2290   50.1450  131.3569 C   0  0  0  0  0  0  0  0  0  0  0  0
   10.0628   50.7033  132.2917 C   0  0  0  0  0  0  0  0  0  0  0  0
   10.1135   50.1813  133.5561 C   0  0  0  0  0  0  0  0  0  0  0  0
    9.3285   49.1018  133.8800 C   0  0  0  0  0  0  0  0  0  0  0  0
    8.5023   48.5557  132.9382 C   0  0  0  0  0  0  0  0  0  0  0  0
   11.2428   42.8152  131.6064 C   0  0  0  0  0  0  0  0  0  0  0  0
   10.8888   41.6531  131.3289 O   0  0  0  0  0  0  0  0  0  0  0  0
   12.6726   43.4188  133.5139 C   0  0  0  0  0  0  0  0  0  0  0  0
   12.4948   43.0296  132.1769 O   0  0  0  0  0  0  0  0  0  0  0  0
    6.5875   49.0699  130.0304 N   0  0  0  0  0  0  0  0  0  0  0  0
    5.6146   48.6559  130.1472 H   0  0  0  0  0  0  0  0  0  0  0  0
    6.7926   50.2481  129.2673 C   0  0  0  0  0  0  0  0  0  0  0  0
    6.5372   51.5064  129.7597 C   0  0  0  0  0  0  0  0  0  0  0  0
    6.7532   52.6489  128.9794 C   0  0  0  0  0  0  0  0  0  0  0  0
    7.2289   52.5258  127.6969 C   0  0  0  0  0  0  0  0  0  0  0  0
    7.4845   51.2695  127.2037 C   0  0  0  0  0  0  0  0  0  0  0  0
    7.2694   50.1328  127.9803 C   0  0  0  0  0  0  0  0  0  0  0  0
    7.4538   53.7199  126.8904 N   0  0  0  0  0  0  0  0  0  0  0  0
    7.3619   54.9539  127.6381 C   0  0  0  0  0  0  0  0  0  0  0  0
    7.7745   53.6360  125.5445 C   0  0  0  0  0  0  0  0  0  0  0  0
    7.9941   52.4014  125.1395 O   0  0  0  0  0  0  0  0  0  0  0  0
    7.9197   54.6368  124.4958 C   0  0  0  0  0  0  0  0  0  0  0  0
    6.8417   54.9835  123.6761 N   0  0  0  0  0  0  0  0  0  0  0  0
    5.8003   55.7860  124.2205 C   0  0  0  0  0  0  0  0  0  0  0  0
    4.5496   54.9863  124.5111 C   0  0  0  0  0  0  0  0  0  0  0  0
    4.0754   54.2560  123.3880 N   0  0  0  0  0  0  0  0  0  0  0  0
    3.1469   53.2251  123.6691 C   0  0  0  0  0  0  0  0  0  0  0  0
    4.9990   54.0285  122.3400 C   0  0  0  0  0  0  0  0  0  0  0  0
    6.4382   54.0810  122.6612 C   0  0  0  0  0  0  0  0  0  0  0  0
 21 22  1  0  0  0
 22 19  1  0  0  0
 19 20  2  0  0  0
 19  1  1  0  0  0
  1  2  2  0  0  0
  2  3  1  0  0  0
  3  4  2  0  0  0
  4  5  1  0  0  0
  5  6  2  0  0  0
  6 23  1  0  0  0
 23 25  1  0  0  0
 25 26  2  0  0  0
 26 27  1  0  0  0
 27 28  2  0  0  0
 28 29  1  0  0  0
 29 30  2  0  0  0
 28 31  1  0  0  0
 31 32  1  0  0  0
 31 33  1  0  0  0
 33 34  2  0  0  0
 33 35  1  0  0  0
 35 36  1  0  0  0
 36 37  1  0  0  0
 37 38  1  0  0  0
 38 39  1  0  0  0
 39 40  1  0  0  0
 39 41  1  0  0  0
 41 42  1  0  0  0
  6 13  1  0  0  0
 13 14  2  0  0  0
 14 15  1  0  0  0
 15 16  2  0  0  0
 16 17  1  0  0  0
 17 18  2  0  0  0
  5  7  1  0  0  0
  7  8  2  0  0  0
  7  9  1  0  0  0
  9 10  1  0  0  0
 10 11  2  0  0  0
 11  1  1  0  0  0
 10  4  1  0  0  0
 30 25  1  0  0  0
 42 36  1  0  0  0
 18 13  1  0  0  0
 23 24  1  0  0  0
  9 12  1  0  0  0
M  END
> <minimizedAffinity>
7.08395

> <CNNscore>
0.4296261966

> <CNNaffinity>
7.0975356102

> <CNN_VS>
3.0492873192

> <CNNaffinity_variance>
0.3832831979

$$$$
[H]c1c([H])c([H])c(/C(=C2/C(=O)N([H])c3c([H])c(C(=O)OC([H])([H])[H])c([H])c([H])c32)N([H])c2c([H])c([H])c(N(C(=O)C([H])([H])N3C([H])([H])C([H])([H])N(C([H])([H])[H])C([H])([H])C3([H])[H])C([H])([H])[H])c([H])c2[H])c([H])c1[H]


 42 46  0  0  0  0  0  0  0  0999 V2000
    8.5198   41.9922  133.6757 C   0  0  0  0  0  0  0  0  0  0  0  0
    8.9599   43.1905  134.1477 C   0  0  0  0  0  0  0  0  0  0  0  0
    9.1573   44.2973  133.3138 C   0  0  0  0  0  0  0  0  0  0  0  0
    8.8917   44.1374  131.9803 C   0  0  0  0  0  0  0  0  0  0  0  0
    8.9737   45.0813  130.8803 C   0  0  0  0  0  0  0  0  0  0  0  0
    9.4414   46.3009  130.8730 C   0  0  0  0  0  0  0  0  0  0  0  0
    8.5220   44.3184  129.6781 C   0  0  0  0  0  0  0  0  0  0  0  0
    8.4357   44.7488  128.5244 O   0  0  0  0  0  0  0  0  0  0  0  0
    8.2036   42.9974  130.0847 N   0  0  0  0  0  0  0  0  0  0  0  0
    8.4384   42.9177  131.4817 C   0  0  0  0  0  0  0  0  0  0  0  0
    8.2544   41.8483  132.3319 C   0  0  0  0  0  0  0  0  0  0  0  0
    7.8538   42.2075  129.4661 H   0  0  0  0  0  0  0  0  0  0  0  0
   10.1375   46.9159  131.9605 C   0  0  0  0  0  0  0  0  0  0  0  0
   11.4005   46.6064  132.4081 C   0  0  0  0  0  0  0  0  0  0  0  0
   11.9477   47.1672  133.5336 C   0  0  0  0  0  0  0  0  0  0  0  0
   11.2267   48.0765  134.2598 C   0  0  0  0  0  0  0  0  0  0  0  0
    9.9600   48.4209  133.8560 C   0  0  0  0  0  0  0  0  0  0  0  0
    9.4274   47.8538  132.7323 C   0  0  0  0  0  0  0  0  0  0  0  0
    8.3084   40.8252  134.5217 C   0  0  0  0  0  0  0  0  0  0  0  0
    9.2040   40.0021  134.7923 O   0  0  0  0  0  0  0  0  0  0  0  0
    5.8595   40.9440  134.3322 C   0  0  0  0  0  0  0  0  0  0  0  0
    7.0309   40.6404  135.0439 O   0  0  0  0  0  0  0  0  0  0  0  0
    9.3857   47.0189  129.6478 N   0  0  0  0  0  0  0  0  0  0  0  0
    9.8794   46.5387  128.8372 H   0  0  0  0  0  0  0  0  0  0  0  0
    8.7398   48.2696  129.4714 C   0  0  0  0  0  0  0  0  0  0  0  0
    9.0846   49.3917  130.1875 C   0  0  0  0  0  0  0  0  0  0  0  0
    8.4272   50.6117  129.9863 C   0  0  0  0  0  0  0  0  0  0  0  0
    7.4176   50.7042  129.0598 C   0  0  0  0  0  0  0  0  0  0  0  0
    7.0722   49.5840  128.3436 C   0  0  0  0  0  0  0  0  0  0  0  0
    7.7264   48.3702  128.5441 C   0  0  0  0  0  0  0  0  0  0  0  0
    6.7386   51.9782  128.8536 N   0  0  0  0  0  0  0  0  0  0  0  0
    5.7438   52.2777  129.8591 C   0  0  0  0  0  0  0  0  0  0  0  0
    7.0797   52.8207  127.8071 C   0  0  0  0  0  0  0  0  0  0  0  0
    8.1470   52.4204  127.1457 O   0  0  0  0  0  0  0  0  0  0  0  0
    6.4977   54.0556  127.2985 C   0  0  0  0  0  0  0  0  0  0  0  0
    7.0580   54.7188  126.2030 N   0  0  0  0  0  0  0  0  0  0  0  0
    6.3188   55.7684  125.5890 C   0  0  0  0  0  0  0  0  0  0  0  0
    5.7150   55.3498  124.2667 C   0  0  0  0  0  0  0  0  0  0  0  0
    6.6681   54.8181  123.3564 N   0  0  0  0  0  0  0  0  0  0  0  0
    6.1391   54.0865  122.2660 C   0  0  0  0  0  0  0  0  0  0  0  0
    7.8920   54.3679  123.9064 C   0  0  0  0  0  0  0  0  0  0  0  0
    7.9156   53.9988  125.3349 C   0  0  0  0  0  0  0  0  0  0  0  0
 21 22  1  0  0  0
 22 19  1  0  0  0
 19 20  2  0  0  0
 19  1  1  0  0  0
  1  2  2  0  0  0
  2  3  1  0  0  0
  3  4  2  0  0  0
  4  5  1  0  0  0
  5  6  2  0  0  0
  6 23  1  0  0  0
 23 25  1  0  0  0
 25 26  2  0  0  0
 26 27  1  0  0  0
 27 28  2  0  0  0
 28 29  1  0  0  0
 29 30  2  0  0  0
 28 31  1  0  0  0
 31 32  1  0  0  0
 31 33  1  0  0  0
 33 34  2  0  0  0
 33 35  1  0  0  0
 35 36  1  0  0  0
 36 37  1  0  0  0
 37 38  1  0  0  0
 38 39  1  0  0  0
 39 40  1  0  0  0
 39 41  1  0  0  0
 41 42  1  0  0  0
  6 13  1  0  0  0
 13 14  2  0  0  0
 14 15  1  0  0  0
 15 16  2  0  0  0
 16 17  1  0  0  0
 17 18  2  0  0  0
  5  7  1  0  0  0
  7  8  2  0  0  0
  7  9  1  0  0  0
  9 10  1  0  0  0
 10 11  2  0  0  0
 11  1  1  0  0  0
 10  4  1  0  0  0
 30 25  1  0  0  0
 42 36  1  0  0  0
 18 13  1  0  0  0
 23 24  1  0  0  0
  9 12  1  0  0  0
M  END
> <minimizedAffinity>
14.19591

> <CNNscore>
0.4277487695

> <CNNaffinity>
7.2291154861

> <CNN_VS>
3.0922453403

> <CNNaffinity_variance>
0.3590753675

$$$$
[H]c1c([H])c([H])c(/C(=C2/C(=O)N([H])c3c([H])c(C(=O)OC([H])([H])[H])c([H])c([H])c32)N([H])c2c([H])c([H])c(N(C(=O)C([H])([H])N3C([H])([H])C([H])([H])N(C([H])([H])[H])C([H])([H])C3([H])[H])C([H])([H])[H])c([H])c2[H])c([H])c1[H]


 42 46  0  0  0  0  0  0  0  0999 V2000
   13.2262   44.1942  129.8155 C   0  0  0  0  0  0  0  0  0  0  0  0
   12.6437   44.2200  131.0452 C   0  0  0  0  0  0  0  0  0  0  0  0
   11.3838   44.7888  131.2655 C   0  0  0  0  0  0  0  0  0  0  0  0
   10.7399   45.3323  130.1865 C   0  0  0  0  0  0  0  0  0  0  0  0
    9.4377   45.9657  130.0832 C   0  0  0  0  0  0  0  0  0  0  0  0
    8.5975   46.2837  131.0316 C   0  0  0  0  0  0  0  0  0  0  0  0
    9.2890   46.3171  128.6390 C   0  0  0  0  0  0  0  0  0  0  0  0
    8.3195   46.8723  128.1139 O   0  0  0  0  0  0  0  0  0  0  0  0
   10.4624   45.9026  127.9585 N   0  0  0  0  0  0  0  0  0  0  0  0
   11.3218   45.3118  128.9205 C   0  0  0  0  0  0  0  0  0  0  0  0
   12.5643   44.7428  128.7394 C   0  0  0  0  0  0  0  0  0  0  0  0
   10.6688   46.0100  126.9218 H   0  0  0  0  0  0  0  0  0  0  0  0
    8.8781   46.2068  132.4318 C   0  0  0  0  0  0  0  0  0  0  0  0
    9.7028   47.0393  133.1518 C   0  0  0  0  0  0  0  0  0  0  0  0
   10.0076   46.8231  134.4713 C   0  0  0  0  0  0  0  0  0  0  0  0
    9.4814   45.7399  135.1222 C   0  0  0  0  0  0  0  0  0  0  0  0
    8.6515   44.8770  134.4491 C   0  0  0  0  0  0  0  0  0  0  0  0
    8.3565   45.1049  133.1343 C   0  0  0  0  0  0  0  0  0  0  0  0
   14.5364   43.6107  129.5602 C   0  0  0  0  0  0  0  0  0  0  0  0
   15.1371   42.8877  130.3782 O   0  0  0  0  0  0  0  0  0  0  0  0
   15.7625   42.9134  127.5458 C   0  0  0  0  0  0  0  0  0  0  0  0
   15.1290   43.8893  128.3313 O   0  0  0  0  0  0  0  0  0  0  0  0
    7.3699   46.8876  130.6469 N   0  0  0  0  0  0  0  0  0  0  0  0
    6.5363   46.2269  130.6563 H   0  0  0  0  0  0  0  0  0  0  0  0
    7.2188   48.2482  130.2751 C   0  0  0  0  0  0  0  0  0  0  0  0
    8.1411   49.2147  130.6013 C   0  0  0  0  0  0  0  0  0  0  0  0
    7.9615   50.5489  130.2161 C   0  0  0  0  0  0  0  0  0  0  0  0
    6.8487   50.9137  129.4987 C   0  0  0  0  0  0  0  0  0  0  0  0
    5.9266   49.9493  129.1721 C   0  0  0  0  0  0  0  0  0  0  0  0
    6.1054   48.6218  129.5556 C   0  0  0  0  0  0  0  0  0  0  0  0
    6.6689   52.3046  129.0987 N   0  0  0  0  0  0  0  0  0  0  0  0
    6.1266   53.1455  130.1423 C   0  0  0  0  0  0  0  0  0  0  0  0
    7.0436   52.7518  127.8413 C   0  0  0  0  0  0  0  0  0  0  0  0
    7.6942   51.8448  127.1408 O   0  0  0  0  0  0  0  0  0  0  0  0
    6.8648   54.0194  127.1461 C   0  0  0  0  0  0  0  0  0  0  0  0
    7.7829   54.4494  126.1836 N   0  0  0  0  0  0  0  0  0  0  0  0
    7.6561   55.7663  125.6593 C   0  0  0  0  0  0  0  0  0  0  0  0
    7.0889   55.7752  124.2570 C   0  0  0  0  0  0  0  0  0  0  0  0
    7.8112   54.9503  123.3528 N   0  0  0  0  0  0  0  0  0  0  0  0
    7.1463   54.6278  122.1454 C   0  0  0  0  0  0  0  0  0  0  0  0
    8.6402   53.9545  123.9225 C   0  0  0  0  0  0  0  0  0  0  0  0
    8.3326   53.4964  125.2909 C   0  0  0  0  0  0  0  0  0  0  0  0
 21 22  1  0  0  0
 22 19  1  0  0  0
 19 20  2  0  0  0
 19  1  1  0  0  0
  1  2  2  0  0  0
  2  3  1  0  0  0
  3  4  2  0  0  0
  4  5  1  0  0  0
  5  6  2  0  0  0
  6 23  1  0  0  0
 23 25  1  0  0  0
 25 26  2  0  0  0
 26 27  1  0  0  0
 27 28  2  0  0  0
 28 29  1  0  0  0
 29 30  2  0  0  0
 28 31  1  0  0  0
 31 32  1  0  0  0
 31 33  1  0  0  0
 33 34  2  0  0  0
 33 35  1  0  0  0
 35 36  1  0  0  0
 36 37  1  0  0  0
 37 38  1  0  0  0
 38 39  1  0  0  0
 39 40  1  0  0  0
 39 41  1  0  0  0
 41 42  1  0  0  0
  6 13  1  0  0  0
 13 14  2  0  0  0
 14 15  1  0  0  0
 15 16  2  0  0  0
 16 17  1  0  0  0
 17 18  2  0  0  0
  5  7  1  0  0  0
  7  8  2  0  0  0
  7  9  1  0  0  0
  9 10  1  0  0  0
 10 11  2  0  0  0
 11  1  1  0  0  0
 10  4  1  0  0  0
 30 25  1  0  0  0
 42 36  1  0  0  0
 18 13  1  0  0  0
 23 24  1  0  0  0
  9 12  1  0  0  0
M  END
> <minimizedAffinity>
11.17927

> <CNNscore>
0.3619362414

> <CNNaffinity>
7.1567826271

> <CNN_VS>
2.5902988911

> <CNNaffinity_variance>
0.1995536536

$$$$
[H]c1c([H])c([H])c(/C(=C2/C(=O)N([H])c3c([H])c(C(=O)OC([H])([H])[H])c([H])c([H])c32)N([H])c2c([H])c([H])c(N(C(=O)C([H])([H])N3C([H])([H])C([H])([H])N(C([H])([H])[H])C([H])([H])C3([H])[H])C([H])([H])[H])c([H])c2[H])c([H])c1[H]


 42 46  0  0  0  0  0  0  0  0999 V2000
   10.7544   44.1565  134.1781 C   0  0  0  0  0  0  0  0  0  0  0  0
   10.5731   44.2077  132.8303 C   0  0  0  0  0  0  0  0  0  0  0  0
   10.2823   45.4007  132.1583 C   0  0  0  0  0  0  0  0  0  0  0  0
   10.1812   46.5398  132.9109 C   0  0  0  0  0  0  0  0  0  0  0  0
    9.9171   47.9122  132.5179 C   0  0  0  0  0  0  0  0  0  0  0  0
    9.5889   48.3859  131.3456 C   0  0  0  0  0  0  0  0  0  0  0  0
    9.9674   48.6974  133.7876 C   0  0  0  0  0  0  0  0  0  0  0  0
    9.7994   49.9147  133.9058 O   0  0  0  0  0  0  0  0  0  0  0  0
   10.2436   47.8021  134.8524 N   0  0  0  0  0  0  0  0  0  0  0  0
   10.3664   46.5045  134.2916 C   0  0  0  0  0  0  0  0  0  0  0  0
   10.6520   45.3118  134.9209 C   0  0  0  0  0  0  0  0  0  0  0  0
   10.3421   48.0475  135.8814 H   0  0  0  0  0  0  0  0  0  0  0  0
    9.2595   47.5887  130.2048 C   0  0  0  0  0  0  0  0  0  0  0  0
    8.0351   47.0326  129.9166 C   0  0  0  0  0  0  0  0  0  0  0  0
    7.8359   46.1831  128.8586 C   0  0  0  0  0  0  0  0  0  0  0  0
    8.8839   45.8593  128.0396 C   0  0  0  0  0  0  0  0  0  0  0  0
   10.1280   46.3876  128.2832 C   0  0  0  0  0  0  0  0  0  0  0  0
   10.3118   47.2328  129.3414 C   0  0  0  0  0  0  0  0  0  0  0  0
   11.0555   42.9282  134.9013 C   0  0  0  0  0  0  0  0  0  0  0  0
   11.8366   42.8762  135.8708 O   0  0  0  0  0  0  0  0  0  0  0  0
    9.1333   41.7485  133.9212 C   0  0  0  0  0  0  0  0  0  0  0  0
   10.4259   41.7640  134.4686 O   0  0  0  0  0  0  0  0  0  0  0  0
    9.4025   49.7902  131.2328 N   0  0  0  0  0  0  0  0  0  0  0  0
    9.9822   50.3641  131.9155 H   0  0  0  0  0  0  0  0  0  0  0  0
    8.5315   50.4192  130.3064 C   0  0  0  0  0  0  0  0  0  0  0  0
    8.5000   50.0871  128.9724 C   0  0  0  0  0  0  0  0  0  0  0  0
    7.6256   50.7270  128.0854 C   0  0  0  0  0  0  0  0  0  0  0  0
    6.7778   51.7063  128.5421 C   0  0  0  0  0  0  0  0  0  0  0  0
    6.8081   52.0391  129.8746 C   0  0  0  0  0  0  0  0  0  0  0  0
    7.6784   51.4023  130.7569 C   0  0  0  0  0  0  0  0  0  0  0  0
    5.8680   52.3672  127.6135 N   0  0  0  0  0  0  0  0  0  0  0  0
    4.5923   51.7013  127.4743 C   0  0  0  0  0  0  0  0  0  0  0  0
    6.2118   53.5517  126.9810 C   0  0  0  0  0  0  0  0  0  0  0  0
    7.3438   54.0645  127.4196 O   0  0  0  0  0  0  0  0  0  0  0  0
    5.5718   54.3395  125.9360 C   0  0  0  0  0  0  0  0  0  0  0  0
    4.1826   54.4898  125.8952 N   0  0  0  0  0  0  0  0  0  0  0  0
    3.4210   54.1116  127.0363 C   0  0  0  0  0  0  0  0  0  0  0  0
    2.6863   52.8054  126.8307 C   0  0  0  0  0  0  0  0  0  0  0  0
    1.8710   52.7957  125.6668 N   0  0  0  0  0  0  0  0  0  0  0  0
    1.4490   51.5208  125.2191 C   0  0  0  0  0  0  0  0  0  0  0  0
    2.1602   53.7669  124.6786 C   0  0  0  0  0  0  0  0  0  0  0  0
    3.5168   54.3466  124.6527 C   0  0  0  0  0  0  0  0  0  0  0  0
 21 22  1  0  0  0
 22 19  1  0  0  0
 19 20  2  0  0  0
 19  1  1  0  0  0
  1  2  2  0  0  0
  2  3  1  0  0  0
  3  4  2  0  0  0
  4  5  1  0  0  0
  5  6  2  0  0  0
  6 23  1  0  0  0
 23 25  1  0  0  0
 25 26  2  0  0  0
 26 27  1  0  0  0
 27 28  2  0  0  0
 28 29  1  0  0  0
 29 30  2  0  0  0
 28 31  1  0  0  0
 31 32  1  0  0  0
 31 33  1  0  0  0
 33 34  2  0  0  0
 33 35  1  0  0  0
 35 36  1  0  0  0
 36 37  1  0  0  0
 37 38  1  0  0  0
 38 39  1  0  0  0
 39 40  1  0  0  0
 39 41  1  0  0  0
 41 42  1  0  0  0
  6 13  1  0  0  0
 13 14  2  0  0  0
 14 15  1  0  0  0
 15 16  2  0  0  0
 16 17  1  0  0  0
 17 18  2  0  0  0
  5  7  1  0  0  0
  7  8  2  0  0  0
  7  9  1  0  0  0
  9 10  1  0  0  0
 10 11  2  0  0  0
 11  1  1  0  0  0
 10  4  1  0  0  0
 30 25  1  0  0  0
 42 36  1  0  0  0
 18 13  1  0  0  0
 23 24  1  0  0  0
  9 12  1  0  0  0
M  END
> <minimizedAffinity>
27.80922

> <CNNscore>
0.3117117584

> <CNNaffinity>
6.8000755310

> <CNN_VS>
2.1196634769

> <CNNaffinity_variance>
0.7042278647

$$$$
[H]c1c([H])c([H])c(/C(=C2/C(=O)N([H])c3c([H])c(C(=O)OC([H])([H])[H])c([H])c([H])c32)N([H])c2c([H])c([H])c(N(C(=O)C([H])([H])N3C([H])([H])C([H])([H])N(C([H])([H])[H])C([H])([H])C3([H])[H])C([H])([H])[H])c([H])c2[H])c([H])c1[H]


 42 46  0  0  0  0  0  0  0  0999 V2000
   10.5736   44.9405  135.5166 C   0  0  0  0  0  0  0  0  0  0  0  0
   10.4140   44.0728  134.4802 C   0  0  0  0  0  0  0  0  0  0  0  0
   10.3257   44.5019  133.1508 C   0  0  0  0  0  0  0  0  0  0  0  0
   10.4040   45.8485  132.9163 C   0  0  0  0  0  0  0  0  0  0  0  0
   10.3687   46.5949  131.6716 C   0  0  0  0  0  0  0  0  0  0  0  0
   10.1311   46.1679  130.4601 C   0  0  0  0  0  0  0  0  0  0  0  0
   10.5350   48.0248  132.0702 C   0  0  0  0  0  0  0  0  0  0  0  0
   10.5653   48.9997  131.3136 O   0  0  0  0  0  0  0  0  0  0  0  0
   10.6539   48.0808  133.4824 N   0  0  0  0  0  0  0  0  0  0  0  0
   10.5697   46.7496  133.9661 C   0  0  0  0  0  0  0  0  0  0  0  0
   10.6535   46.2920  135.2638 C   0  0  0  0  0  0  0  0  0  0  0  0
   10.7825   48.9522  134.0766 H   0  0  0  0  0  0  0  0  0  0  0  0
    9.6864   44.8491  130.1308 C   0  0  0  0  0  0  0  0  0  0  0  0
    8.4188   44.3430  130.2998 C   0  0  0  0  0  0  0  0  0  0  0  0
    8.1066   43.0284  130.0649 C   0  0  0  0  0  0  0  0  0  0  0  0
    9.0800   42.1630  129.6437 C   0  0  0  0  0  0  0  0  0  0  0  0
   10.3629   42.6174  129.4591 C   0  0  0  0  0  0  0  0  0  0  0  0
   10.6595   43.9301  129.6971 C   0  0  0  0  0  0  0  0  0  0  0  0
   10.6661   44.5200  136.9083 C   0  0  0  0  0  0  0  0  0  0  0  0
    9.8363   44.8435  137.7798 O   0  0  0  0  0  0  0  0  0  0  0  0
   11.6458   42.3246  137.4257 C   0  0  0  0  0  0  0  0  0  0  0  0
   11.7465   43.7150  137.2597 O   0  0  0  0  0  0  0  0  0  0  0  0
   10.1753   47.1208  129.4068 N   0  0  0  0  0  0  0  0  0  0  0  0
   10.9872   46.9891  128.7323 H   0  0  0  0  0  0  0  0  0  0  0  0
    9.2411   48.1733  129.2279 C   0  0  0  0  0  0  0  0  0  0  0  0
    8.0513   48.0053  128.5592 C   0  0  0  0  0  0  0  0  0  0  0  0
    7.1505   49.0659  128.4027 C   0  0  0  0  0  0  0  0  0  0  0  0
    7.4473   50.3024  128.9216 C   0  0  0  0  0  0  0  0  0  0  0  0
    8.6355   50.4717  129.5899 C   0  0  0  0  0  0  0  0  0  0  0  0
    9.5317   49.4162  129.7453 C   0  0  0  0  0  0  0  0  0  0  0  0
    6.5038   51.4022  128.7570 N   0  0  0  0  0  0  0  0  0  0  0  0
    5.2834   51.2413  129.5153 C   0  0  0  0  0  0  0  0  0  0  0  0
    6.8070   52.5073  127.9772 C   0  0  0  0  0  0  0  0  0  0  0  0
    8.0535   52.5141  127.5495 O   0  0  0  0  0  0  0  0  0  0  0  0
    6.0265   53.6578  127.5420 C   0  0  0  0  0  0  0  0  0  0  0  0
    6.6303   54.7281  126.8756 N   0  0  0  0  0  0  0  0  0  0  0  0
    5.8138   55.5968  126.0987 C   0  0  0  0  0  0  0  0  0  0  0  0
    5.9727   55.3603  124.6131 C   0  0  0  0  0  0  0  0  0  0  0  0
    7.3227   55.4267  124.1743 N   0  0  0  0  0  0  0  0  0  0  0  0
    7.5856   54.8704  122.8993 C   0  0  0  0  0  0  0  0  0  0  0  0
    8.3225   55.2783  125.1650 C   0  0  0  0  0  0  0  0  0  0  0  0
    7.9619   54.5812  126.4145 C   0  0  0  0  0  0  0  0  0  0  0  0
 21 22  1  0  0  0
 22 19  1  0  0  0
 19 20  2  0  0  0
 19  1  1  0  0  0
  1  2  2  0  0  0
  2  3  1  0  0  0
  3  4  2  0  0  0
  4  5  1  0  0  0
  5  6  2  0  0  0
  6 23  1  0  0  0
 23 25  1  0  0  0
 25 26  2  0  0  0
 26 27  1  0  0  0
 27 28  2  0  0  0
 28 29  1  0  0  0
 29 30  2  0  0  0
 28 31  1  0  0  0
 31 32  1  0  0  0
 31 33  1  0  0  0
 33 34  2  0  0  0
 33 35  1  0  0  0
 35 36  1  0  0  0
 36 37  1  0  0  0
 37 38  1  0  0  0
 38 39  1  0  0  0
 39 40  1  0  0  0
 39 41  1  0  0  0
 41 42  1  0  0  0
  6 13  1  0  0  0
 13 14  2  0  0  0
 14 15  1  0  0  0
 15 16  2  0  0  0
 16 17  1  0  0  0
 17 18  2  0  0  0
  5  7  1  0  0  0
  7  8  2  0  0  0
  7  9  1  0  0  0
  9 10  1  0  0  0
 10 11  2  0  0  0
 11  1  1  0  0  0
 10  4  1  0  0  0
 30 25  1  0  0  0
 42 36  1  0  0  0
 18 13  1  0  0  0
 23 24  1  0  0  0
  9 12  1  0  0  0
M  END
> <minimizedAffinity>
14.49326

> <CNNscore>
0.3047457933

> <CNNaffinity>
7.2229065895

> <CNN_VS>
2.2011504173

> <CNNaffinity_variance>
0.3668490350

$$$$
[H]c1c([H])c([H])c(/C(=C2/C(=O)N([H])c3c([H])c(C(=O)OC([H])([H])[H])c([H])c([H])c32)N([H])c2c([H])c([H])c(N(C(=O)C([H])([H])N3C([H])([H])C([H])([H])N(C([H])([H])[H])C([H])([H])C3([H])[H])C([H])([H])[H])c([H])c2[H])c([H])c1[H]


 42 46  0  0  0  0  0  0  0  0999 V2000
   10.2980   40.4734  130.3468 C   0  0  0  0  0  0  0  0  0  0  0  0
   10.4459   41.1371  131.5257 C   0  0  0  0  0  0  0  0  0  0  0  0
   10.4178   42.5343  131.6075 C   0  0  0  0  0  0  0  0  0  0  0  0
   10.2354   43.2305  130.4429 C   0  0  0  0  0  0  0  0  0  0  0  0
   10.1391   44.6587  130.2005 C   0  0  0  0  0  0  0  0  0  0  0  0
   10.3239   45.6505  131.0303 C   0  0  0  0  0  0  0  0  0  0  0  0
    9.9054   44.7894  128.7310 C   0  0  0  0  0  0  0  0  0  0  0  0
    9.7610   45.8409  128.1006 O   0  0  0  0  0  0  0  0  0  0  0  0
    9.8765   43.4875  128.1688 N   0  0  0  0  0  0  0  0  0  0  0  0
   10.0801   42.5658  129.2281 C   0  0  0  0  0  0  0  0  0  0  0  0
   10.1126   41.1883  129.1842 C   0  0  0  0  0  0  0  0  0  0  0  0
    9.7301   43.2385  127.1463 H   0  0  0  0  0  0  0  0  0  0  0  0
   10.8321   45.5193  132.3607 C   0  0  0  0  0  0  0  0  0  0  0  0
   10.1172   45.6405  133.5293 C   0  0  0  0  0  0  0  0  0  0  0  0
   10.7074   45.6151  134.7670 C   0  0  0  0  0  0  0  0  0  0  0  0
   12.0640   45.4638  134.8706 C   0  0  0  0  0  0  0  0  0  0  0  0
   12.8247   45.3383  133.7341 C   0  0  0  0  0  0  0  0  0  0  0  0
   12.2229   45.3654  132.5073 C   0  0  0  0  0  0  0  0  0  0  0  0
   10.3256   39.0213  130.2344 C   0  0  0  0  0  0  0  0  0  0  0  0
   11.3734   38.3486  130.2836 O   0  0  0  0  0  0  0  0  0  0  0  0
    8.0750   38.8764  129.2542 C   0  0  0  0  0  0  0  0  0  0  0  0
    9.1053   38.3726  130.0637 O   0  0  0  0  0  0  0  0  0  0  0  0
   10.1475   46.9685  130.5290 N   0  0  0  0  0  0  0  0  0  0  0  0
   11.0433   47.5399  130.4777 H   0  0  0  0  0  0  0  0  0  0  0  0
    8.9060   47.5192  130.1194 C   0  0  0  0  0  0  0  0  0  0  0  0
    7.7032   46.8943  130.3510 C   0  0  0  0  0  0  0  0  0  0  0  0
    6.4953   47.4675  129.9348 C   0  0  0  0  0  0  0  0  0  0  0  0
    6.4965   48.6759  129.2821 C   0  0  0  0  0  0  0  0  0  0  0  0
    7.6974   49.3014  129.0501 C   0  0  0  0  0  0  0  0  0  0  0  0
    8.8991   48.7307  129.4642 C   0  0  0  0  0  0  0  0  0  0  0  0
    5.2349   49.2685  128.8532 N   0  0  0  0  0  0  0  0  0  0  0  0
    4.6464   48.6178  127.7041 C   0  0  0  0  0  0  0  0  0  0  0  0
    4.6590   50.3250  129.5413 C   0  0  0  0  0  0  0  0  0  0  0  0
    5.2820   50.6124  130.6665 O   0  0  0  0  0  0  0  0  0  0  0  0
    3.5062   51.1736  129.2705 C   0  0  0  0  0  0  0  0  0  0  0  0
    2.9059   51.1929  128.0082 N   0  0  0  0  0  0  0  0  0  0  0  0
    3.3433   52.1584  127.0587 C   0  0  0  0  0  0  0  0  0  0  0  0
    2.3517   53.2878  126.8878 C   0  0  0  0  0  0  0  0  0  0  0  0
    1.0401   52.8416  126.5710 N   0  0  0  0  0  0  0  0  0  0  0  0
    0.0050   53.7904  126.7507 C   0  0  0  0  0  0  0  0  0  0  0  0
    0.7389   51.4901  126.8643 C   0  0  0  0  0  0  0  0  0  0  0  0
    1.5475   50.8074  127.8926 C   0  0  0  0  0  0  0  0  0  0  0  0
 21 22  1  0  0  0
 22 19  1  0  0  0
 19 20  2  0  0  0
 19  1  1  0  0  0
  1  2  2  0  0  0
  2  3  1  0  0  0
  3  4  2  0  0  0
  4  5  1  0  0  0
  5  6  2  0  0  0
  6 23  1  0  0  0
 23 25  1  0  0  0
 25 26  2  0  0  0
 26 27  1  0  0  0
 27 28  2  0  0  0
 28 29  1  0  0  0
 29 30  2  0  0  0
 28 31  1  0  0  0
 31 32  1  0  0  0
 31 33  1  0  0  0
 33 34  2  0  0  0
 33 35  1  0  0  0
 35 36  1  0  0  0
 36 37  1  0  0  0
 37 38  1  0  0  0
 38 39  1  0  0  0
 39 40  1  0  0  0
 39 41  1  0  0  0
 41 42  1  0  0  0
  6 13  1  0  0  0
 13 14  2  0  0  0
 14 15  1  0  0  0
 15 16  2  0  0  0
 16 17  1  0  0  0
 17 18  2  0  0  0
  5  7  1  0  0  0
  7  8  2  0  0  0
  7  9  1  0  0  0
  9 10  1  0  0  0
 10 11  2  0  0  0
 11  1  1  0  0  0
 10  4  1  0  0  0
 30 25  1  0  0  0
 42 36  1  0  0  0
 18 13  1  0  0  0
 23 24  1  0  0  0
  9 12  1  0  0  0
M  END
> <minimizedAffinity>
31.31416

> <CNNscore>
0.2873684168

> <CNNaffinity>
7.1358947754

> <CNN_VS>
2.0506308079

> <CNNaffinity_variance>
0.4744710028

$$$$
[H]c1c([H])c([H])c(/C(=C2/C(=O)N([H])c3c([H])c(C(=O)OC([H])([H])[H])c([H])c([H])c32)N([H])c2c([H])c([H])c(N(C(=O)C([H])([H])N3C([H])([H])C([H])([H])N(C([H])([H])[H])C([H])([H])C3([H])[H])C([H])([H])[H])c([H])c2[H])c([H])c1[H]


 42 46  0  0  0  0  0  0  0  0999 V2000
   13.2809   44.1808  129.8589 C   0  0  0  0  0  0  0  0  0  0  0  0
   12.6912   44.2149  131.0850 C   0  0  0  0  0  0  0  0  0  0  0  0
   11.4115   44.7451  131.2863 C   0  0  0  0  0  0  0  0  0  0  0  0
   10.7553   45.2414  130.1920 C   0  0  0  0  0  0  0  0  0  0  0  0
    9.4328   45.8274  130.0681 C   0  0  0  0  0  0  0  0  0  0  0  0
    8.5771   46.1381  131.0049 C   0  0  0  0  0  0  0  0  0  0  0  0
    9.2801   46.1402  128.6154 C   0  0  0  0  0  0  0  0  0  0  0  0
    8.2951   46.6497  128.0731 O   0  0  0  0  0  0  0  0  0  0  0  0
   10.4705   45.7506  127.9501 N   0  0  0  0  0  0  0  0  0  0  0  0
   11.3444   45.2118  128.9295 C   0  0  0  0  0  0  0  0  0  0  0  0
   12.6065   44.6816  128.7674 C   0  0  0  0  0  0  0  0  0  0  0  0
   10.6788   45.8411  126.9121 H   0  0  0  0  0  0  0  0  0  0  0  0
    8.8526   46.1030  132.4078 C   0  0  0  0  0  0  0  0  0  0  0  0
    8.1019   45.4805  133.3776 C   0  0  0  0  0  0  0  0  0  0  0  0
    8.3758   45.5951  134.7164 C   0  0  0  0  0  0  0  0  0  0  0  0
    9.4359   46.3555  135.1311 C   0  0  0  0  0  0  0  0  0  0  0  0
   10.2180   46.9984  134.2031 C   0  0  0  0  0  0  0  0  0  0  0  0
    9.9332   46.8752  132.8722 C   0  0  0  0  0  0  0  0  0  0  0  0
   14.6116   43.6368  129.6233 C   0  0  0  0  0  0  0  0  0  0  0  0
   15.1972   42.8837  130.4249 O   0  0  0  0  0  0  0  0  0  0  0  0
   15.7483   43.0491  127.5233 C   0  0  0  0  0  0  0  0  0  0  0  0
   15.2426   43.9907  128.4335 O   0  0  0  0  0  0  0  0  0  0  0  0
    7.3318   46.6906  130.6007 N   0  0  0  0  0  0  0  0  0  0  0  0
    6.5272   45.9949  130.5927 H   0  0  0  0  0  0  0  0  0  0  0  0
    7.1291   48.0452  130.2314 C   0  0  0  0  0  0  0  0  0  0  0  0
    6.0296   48.4652  129.5202 C   0  0  0  0  0  0  0  0  0  0  0  0
    5.8598   49.8113  129.1740 C   0  0  0  0  0  0  0  0  0  0  0  0
    6.8004   50.7407  129.5450 C   0  0  0  0  0  0  0  0  0  0  0  0
    7.8993   50.3226  130.2555 C   0  0  0  0  0  0  0  0  0  0  0  0
    8.0681   48.9831  130.5997 C   0  0  0  0  0  0  0  0  0  0  0  0
    6.6164   52.1414  129.1832 N   0  0  0  0  0  0  0  0  0  0  0  0
    6.0260   52.9416  130.2327 C   0  0  0  0  0  0  0  0  0  0  0  0
    7.0296   52.6334  127.9550 C   0  0  0  0  0  0  0  0  0  0  0  0
    7.7169   51.7575  127.2499 O   0  0  0  0  0  0  0  0  0  0  0  0
    6.8587   53.9205  127.2943 C   0  0  0  0  0  0  0  0  0  0  0  0
    7.7658   54.3596  126.3255 N   0  0  0  0  0  0  0  0  0  0  0  0
    7.6647   55.6976  125.8519 C   0  0  0  0  0  0  0  0  0  0  0  0
    7.0649   55.7736  124.4652 C   0  0  0  0  0  0  0  0  0  0  0  0
    7.7415   54.9624  123.5146 N   0  0  0  0  0  0  0  0  0  0  0  0
    7.0392   54.7028  122.3132 C   0  0  0  0  0  0  0  0  0  0  0  0
    8.5547   53.9237  124.0276 C   0  0  0  0  0  0  0  0  0  0  0  0
    8.2665   53.4247  125.3859 C   0  0  0  0  0  0  0  0  0  0  0  0
 21 22  1  0  0  0
 22 19  1  0  0  0
 19 20  2  0  0  0
 19  1  1  0  0  0
  1  2  2  0  0  0
  2  3  1  0  0  0
  3  4  2  0  0  0
  4  5  1  0  0  0
  5  6  2  0  0  0
  6 23  1  0  0  0
 23 25  1  0  0  0
 25 26  2  0  0  0
 26 27  1  0  0  0
 27 28  2  0  0  0
 28 29  1  0  0  0
 29 30  2  0  0  0
 28 31  1  0  0  0
 31 32  1  0  0  0
 31 33  1  0  0  0
 33 34  2  0  0  0
 33 35  1  0  0  0
 35 36  1  0  0  0
 36 37  1  0  0  0
 37 38  1  0  0  0
 38 39  1  0  0  0
 39 40  1  0  0  0
 39 41  1  0  0  0
 41 42  1  0  0  0
  6 13  1  0  0  0
 13 14  2  0  0  0
 14 15  1  0  0  0
 15 16  2  0  0  0
 16 17  1  0  0  0
 17 18  2  0  0  0
  5  7  1  0  0  0
  7  8  2  0  0  0
  7  9  1  0  0  0
  9 10  1  0  0  0
 10 11  2  0  0  0
 11  1  1  0  0  0
 10  4  1  0  0  0
 30 25  1  0  0  0
 42 36  1  0  0  0
 18 13  1  0  0  0
 23 24  1  0  0  0
  9 12  1  0  0  0
M  END
> <minimizedAffinity>
10.48420

> <CNNscore>
0.2840994895

> <CNNaffinity>
7.1071915627

> <CNN_VS>
2.0191495419

> <CNNaffinity_variance>
0.1194798723

$$$$
[H]c1c([H])c([H])c(/C(=C2/C(=O)N([H])c3c([H])c(C(=O)OC([H])([H])[H])c([H])c([H])c32)N([H])c2c([H])c([H])c(N(C(=O)C([H])([H])N3C([H])([H])C([H])([H])N(C([H])([H])[H])C([H])([H])C3([H])[H])C([H])([H])[H])c([H])c2[H])c([H])c1[H]


 42 46  0  0  0  0  0  0  0  0999 V2000
    9.6415   42.4672  133.3817 C   0  0  0  0  0  0  0  0  0  0  0  0
    9.9510   42.9344  132.1415 C   0  0  0  0  0  0  0  0  0  0  0  0
    9.6637   44.2447  131.7413 C   0  0  0  0  0  0  0  0  0  0  0  0
    9.0474   45.0610  132.6513 C   0  0  0  0  0  0  0  0  0  0  0  0
    8.6438   46.4521  132.5522 C   0  0  0  0  0  0  0  0  0  0  0  0
    8.6629   47.2446  131.5139 C   0  0  0  0  0  0  0  0  0  0  0  0
    8.0573   46.7833  133.8854 C   0  0  0  0  0  0  0  0  0  0  0  0
    7.5914   47.8722  134.2332 O   0  0  0  0  0  0  0  0  0  0  0  0
    8.1237   45.6239  134.6998 N   0  0  0  0  0  0  0  0  0  0  0  0
    8.7260   44.5985  133.9258 C   0  0  0  0  0  0  0  0  0  0  0  0
    9.0240   43.3018  134.2867 C   0  0  0  0  0  0  0  0  0  0  0  0
    7.7879   45.5306  135.7035 H   0  0  0  0  0  0  0  0  0  0  0  0
    8.9527   46.8317  130.1757 C   0  0  0  0  0  0  0  0  0  0  0  0
    8.0964   46.1946  129.3084 C   0  0  0  0  0  0  0  0  0  0  0  0
    8.4932   45.7290  128.0810 C   0  0  0  0  0  0  0  0  0  0  0  0
    9.7913   45.8929  127.6785 C   0  0  0  0  0  0  0  0  0  0  0  0
   10.6875   46.5229  128.5070 C   0  0  0  0  0  0  0  0  0  0  0  0
   10.2779   46.9817  129.7274 C   0  0  0  0  0  0  0  0  0  0  0  0
    9.9277   41.1083  133.8218 C   0  0  0  0  0  0  0  0  0  0  0  0
   10.7406   40.3578  133.2485 O   0  0  0  0  0  0  0  0  0  0  0  0
    9.2604   39.3022  135.3515 C   0  0  0  0  0  0  0  0  0  0  0  0
    9.2452   40.6454  134.9438 O   0  0  0  0  0  0  0  0  0  0  0  0
    8.2217   48.5826  131.7001 N   0  0  0  0  0  0  0  0  0  0  0  0
    8.0653   48.8535  132.7168 H   0  0  0  0  0  0  0  0  0  0  0  0
    7.9959   49.5133  130.6537 C   0  0  0  0  0  0  0  0  0  0  0  0
    7.4135   50.7412  130.8638 C   0  0  0  0  0  0  0  0  0  0  0  0
    7.2074   51.6373  129.8077 C   0  0  0  0  0  0  0  0  0  0  0  0
    7.5890   51.2972  128.5330 C   0  0  0  0  0  0  0  0  0  0  0  0
    8.1710   50.0709  128.3215 C   0  0  0  0  0  0  0  0  0  0  0  0
    8.3759   49.1795  129.3726 C   0  0  0  0  0  0  0  0  0  0  0  0
    7.3735   52.2359  127.4379 N   0  0  0  0  0  0  0  0  0  0  0  0
    7.3276   51.6107  126.1351 C   0  0  0  0  0  0  0  0  0  0  0  0
    7.1832   53.5892  127.6697 C   0  0  0  0  0  0  0  0  0  0  0  0
    7.0706   53.8856  128.9489 O   0  0  0  0  0  0  0  0  0  0  0  0
    7.0800   54.7416  126.7846 C   0  0  0  0  0  0  0  0  0  0  0  0
    6.7400   54.5877  125.4374 N   0  0  0  0  0  0  0  0  0  0  0  0
    7.2867   53.4895  124.7164 C   0  0  0  0  0  0  0  0  0  0  0  0
    8.3895   53.9130  123.7716 C   0  0  0  0  0  0  0  0  0  0  0  0
    7.9982   54.9460  122.8774 N   0  0  0  0  0  0  0  0  0  0  0  0
    9.0522   55.6313  122.2267 C   0  0  0  0  0  0  0  0  0  0  0  0
    6.8582   55.7030  123.2385 C   0  0  0  0  0  0  0  0  0  0  0  0
    6.4771   55.7450  124.6634 C   0  0  0  0  0  0  0  0  0  0  0  0
 21 22  1  0  0  0
 22 19  1  0  0  0
 19 20  2  0  0  0
 19  1  1  0  0  0
  1  2  2  0  0  0
  2  3  1  0  0  0
  3  4  2  0  0  0
  4  5  1  0  0  0
  5  6  2  0  0  0
  6 23  1  0  0  0
 23 25  1  0  0  0
 25 26  2  0  0  0
 26 27  1  0  0  0
 27 28  2  0  0  0
 28 29  1  0  0  0
 29 30  2  0  0  0
 28 31  1  0  0  0
 31 32  1  0  0  0
 31 33  1  0  0  0
 33 34  2  0  0  0
 33 35  1  0  0  0
 35 36  1  0  0  0
 36 37  1  0  0  0
 37 38  1  0  0  0
 38 39  1  0  0  0
 39 40  1  0  0  0
 39 41  1  0  0  0
 41 42  1  0  0  0
  6 13  1  0  0  0
 13 14  2  0  0  0
 14 15  1  0  0  0
 15 16  2  0  0  0
 16 17  1  0  0  0
 17 18  2  0  0  0
  5  7  1  0  0  0
  7  8  2  0  0  0
  7  9  1  0  0  0
  9 10  1  0  0  0
 10 11  2  0  0  0
 11  1  1  0  0  0
 10  4  1  0  0  0
 30 25  1  0  0  0
 42 36  1  0  0  0
 18 13  1  0  0  0
 23 24  1  0  0  0
  9 12  1  0  0  0
M  END
> <minimizedAffinity>
24.97071

> <CNNscore>
0.2790489495

> <CNNaffinity>
7.0339040756

> <CNN_VS>
1.9628036022

> <CNNaffinity_variance>
0.5215431452

$$$$
[H]c1c([H])c([H])c(/C(=C2/C(=O)N([H])c3c([H])c(C(=O)OC([H])([H])[H])c([H])c([H])c32)N([H])c2c([H])c([H])c(N(C(=O)C([H])([H])N3C([H])([H])C([H])([H])N(C([H])([H])[H])C([H])([H])C3([H])[H])C([H])([H])[H])c([H])c2[H])c([H])c1[H]


 42 46  0  0  0  0  0  0  0  0999 V2000
   12.0429   45.9667  133.4687 C   0  0  0  0  0  0  0  0  0  0  0  0
   12.0842   45.5144  132.1858 C   0  0  0  0  0  0  0  0  0  0  0  0
   11.0961   45.8334  131.2469 C   0  0  0  0  0  0  0  0  0  0  0  0
   10.0631   46.6290  131.6642 C   0  0  0  0  0  0  0  0  0  0  0  0
    8.9163   47.1466  130.9398 C   0  0  0  0  0  0  0  0  0  0  0  0
    8.5194   46.8798  129.7243 C   0  0  0  0  0  0  0  0  0  0  0  0
    8.1719   47.9784  131.9324 C   0  0  0  0  0  0  0  0  0  0  0  0
    7.1294   48.6074  131.7291 O   0  0  0  0  0  0  0  0  0  0  0  0
    8.8690   47.9265  133.1665 N   0  0  0  0  0  0  0  0  0  0  0  0
   10.0075   47.1020  132.9738 C   0  0  0  0  0  0  0  0  0  0  0  0
   10.9983   46.7684  133.8723 C   0  0  0  0  0  0  0  0  0  0  0  0
    8.5975   48.4113  134.0722 H   0  0  0  0  0  0  0  0  0  0  0  0
    9.0753   45.8616  128.8879 C   0  0  0  0  0  0  0  0  0  0  0  0
    8.6467   44.5589  128.7834 C   0  0  0  0  0  0  0  0  0  0  0  0
    9.3112   43.6156  128.0423 C   0  0  0  0  0  0  0  0  0  0  0  0
   10.4521   43.9599  127.3686 C   0  0  0  0  0  0  0  0  0  0  0  0
   10.9232   45.2480  127.4394 C   0  0  0  0  0  0  0  0  0  0  0  0
   10.2506   46.1776  128.1819 C   0  0  0  0  0  0  0  0  0  0  0  0
   13.0567   45.6476  134.4651 C   0  0  0  0  0  0  0  0  0  0  0  0
   13.9229   46.4579  134.8469 O   0  0  0  0  0  0  0  0  0  0  0  0
   12.7618   43.2162  134.2453 C   0  0  0  0  0  0  0  0  0  0  0  0
   13.0371   44.3642  135.0049 O   0  0  0  0  0  0  0  0  0  0  0  0
    7.3575   47.5473  129.2508 N   0  0  0  0  0  0  0  0  0  0  0  0
    6.5344   46.9035  129.0520 H   0  0  0  0  0  0  0  0  0  0  0  0
    7.2555   48.9472  129.0457 C   0  0  0  0  0  0  0  0  0  0  0  0
    6.9596   49.8274  130.0599 C   0  0  0  0  0  0  0  0  0  0  0  0
    6.8687   51.2045  129.8226 C   0  0  0  0  0  0  0  0  0  0  0  0
    7.0768   51.6996  128.5586 C   0  0  0  0  0  0  0  0  0  0  0  0
    7.3726   50.8215  127.5444 C   0  0  0  0  0  0  0  0  0  0  0  0
    7.4627   49.4513  127.7808 C   0  0  0  0  0  0  0  0  0  0  0  0
    6.9829   53.1350  128.3187 N   0  0  0  0  0  0  0  0  0  0  0  0
    6.4046   53.8731  129.4193 C   0  0  0  0  0  0  0  0  0  0  0  0
    7.4621   53.7080  127.1511 C   0  0  0  0  0  0  0  0  0  0  0  0
    8.1218   52.8587  126.3893 O   0  0  0  0  0  0  0  0  0  0  0  0
    7.3846   55.0559  126.6039 C   0  0  0  0  0  0  0  0  0  0  0  0
    7.3286   55.2715  125.2238 N   0  0  0  0  0  0  0  0  0  0  0  0
    6.2990   54.6363  124.4746 C   0  0  0  0  0  0  0  0  0  0  0  0
    6.8135   53.4651  123.6673 C   0  0  0  0  0  0  0  0  0  0  0  0
    7.9050   53.8012  122.8215 N   0  0  0  0  0  0  0  0  0  0  0  0
    8.6571   52.7111  122.3215 C   0  0  0  0  0  0  0  0  0  0  0  0
    8.6114   54.9871  123.1343 C   0  0  0  0  0  0  0  0  0  0  0  0
    8.5370   55.4935  124.5182 C   0  0  0  0  0  0  0  0  0  0  0  0
 21 22  1  0  0  0
 22 19  1  0  0  0
 19 20  2  0  0  0
 19  1  1  0  0  0
  1  2  2  0  0  0
  2  3  1  0  0  0
  3  4  2  0  0  0
  4  5  1  0  0  0
  5  6  2  0  0  0
  6 23  1  0  0  0
 23 25  1  0  0  0
 25 26  2  0  0  0
 26 27  1  0  0  0
 27 28  2  0  0  0
 28 29  1  0  0  0
 29 30  2  0  0  0
 28 31  1  0  0  0
 31 32  1  0  0  0
 31 33  1  0  0  0
 33 34  2  0  0  0
 33 35  1  0  0  0
 35 36  1  0  0  0
 36 37  1  0  0  0
 37 38  1  0  0  0
 38 39  1  0  0  0
 39 40  1  0  0  0
 39 41  1  0  0  0
 41 42  1  0  0  0
  6 13  1  0  0  0
 13 14  2  0  0  0
 14 15  1  0  0  0
 15 16  2  0  0  0
 16 17  1  0  0  0
 17 18  2  0  0  0
  5  7  1  0  0  0
  7  8  2  0  0  0
  7  9  1  0  0  0
  9 10  1  0  0  0
 10 11  2  0  0  0
 11  1  1  0  0  0
 10  4  1  0  0  0
 30 25  1  0  0  0
 42 36  1  0  0  0
 18 13  1  0  0  0
 23 24  1  0  0  0
  9 12  1  0  0  0
M  END
> <minimizedAffinity>
13.26499

> <CNNscore>
0.2656381428

> <CNNaffinity>
6.9300436974

> <CNN_VS>
1.8408839703

> <CNNaffinity_variance>
0.3425529897

$$$$
[H]N=C(N([H])[H])N([H])C([H])([H])C([H])([H])C([H])([H])[C@@]([H])(C(=O)N([H])[H])N([H])C(=O)[C@]([H])(N([H])C(=O)[C@@]([H])(N([H])C(=O)[C@]([H])(N([H])C(=O)[C@@]([H])(N([H])C(=O)[C@@]([H])(N([H])C(=O)[C@@]([H])(N([H])C(=O)C([H])(C([H])([H])O[H])C([H])([H])O[H])C([H])([H])O[H])C([H])([H])O[H])C([H])([H])O[H])C([H])([H])O[H])C([H])([H])O[H])C([H])([H])O[H]


 76 75  0  0  0  0  0  0  0  0999 V2000
   -2.9474   39.1435  120.9152 C   0  0  0  0  0  0  0  0  0  0  0  0
   -3.0358   41.4968  120.0257 N   0  0  0  0  0  0  0  0  0  0  0  0
   -2.3899   40.4858  120.7724 C   0  0  0  0  0  0  0  0  0  0  0  0
   -1.2681   40.7201  121.3565 O   0  0  0  0  0  0  0  0  0  0  0  0
   -3.9815   41.2908  119.5802 H   0  0  0  0  0  0  0  0  0  0  0  0
   -2.5581   42.8319  119.7984 C   0  0  0  0  0  0  0  0  0  0  0  0
   -3.4867   45.1781  119.3559 N   0  0  0  0  0  0  0  0  0  0  0  0
   -3.5651   43.8959  119.9653 C   0  0  0  0  0  0  0  0  0  0  0  0
   -4.5621   43.6754  120.6863 O   0  0  0  0  0  0  0  0  0  0  0  0
   -2.6605   45.3572  118.7238 H   0  0  0  0  0  0  0  0  0  0  0  0
   -4.4395   46.2388  119.5214 C   0  0  0  0  0  0  0  0  0  0  0  0
   -3.6904   48.2257  118.0987 N   0  0  0  0  0  0  0  0  0  0  0  0
   -3.8690   47.5687  119.3495 C   0  0  0  0  0  0  0  0  0  0  0  0
   -3.5049   48.1869  120.3842 O   0  0  0  0  0  0  0  0  0  0  0  0
   -4.0059   47.7061  117.2516 H   0  0  0  0  0  0  0  0  0  0  0  0
   -3.1009   49.5446  118.0029 C   0  0  0  0  0  0  0  0  0  0  0  0
   -1.6739   49.5505  117.6573 C   0  0  0  0  0  0  0  0  0  0  0  0
   -0.7170   49.9774  118.6032 N   0  0  0  0  0  0  0  0  0  0  0  0
   -1.2155   49.1833  116.5173 O   0  0  0  0  0  0  0  0  0  0  0  0
    0.1559   50.4291  118.2951 H   0  0  0  0  0  0  0  0  0  0  0  0
   -0.9052   49.8281  119.6102 H   0  0  0  0  0  0  0  0  0  0  0  0
   -3.4869   50.4011  119.1432 C   0  0  0  0  0  0  0  0  0  0  0  0
   -4.0723   51.7421  118.8681 C   0  0  0  0  0  0  0  0  0  0  0  0
   -3.6548   52.8263  119.8054 C   0  0  0  0  0  0  0  0  0  0  0  0
   -4.2977   54.1040  119.4891 N   0  0  0  0  0  0  0  0  0  0  0  0
   -4.7003   54.2355  118.5593 H   0  0  0  0  0  0  0  0  0  0  0  0
   -4.1003   56.4741  120.1890 N   0  0  0  0  0  0  0  0  0  0  0  0
   -4.3388   55.1035  120.4675 C   0  0  0  0  0  0  0  0  0  0  0  0
   -4.6066   54.7968  121.7110 N   0  0  0  0  0  0  0  0  0  0  0  0
   -3.4258   57.0238  120.7527 H   0  0  0  0  0  0  0  0  0  0  0  0
   -4.6069   56.9380  119.4119 H   0  0  0  0  0  0  0  0  0  0  0  0
   -4.6475   55.5057  122.4697 H   0  0  0  0  0  0  0  0  0  0  0  0
   -5.5460   46.1136  118.4421 C   0  0  0  0  0  0  0  0  0  0  0  0
   -4.9550   45.7588  117.2173 O   0  0  0  0  0  0  0  0  0  0  0  0
   -5.6240   45.9298  116.5171 H   0  0  0  0  0  0  0  0  0  0  0  0
   -1.7448   42.9643  118.5505 C   0  0  0  0  0  0  0  0  0  0  0  0
   -2.4881   42.9704  117.3929 O   0  0  0  0  0  0  0  0  0  0  0  0
   -1.9986   42.5706  116.6497 H   0  0  0  0  0  0  0  0  0  0  0  0
   -2.3236   38.4873  122.0722 N   0  0  0  0  0  0  0  0  0  0  0  0
   -1.2717   37.5575  121.7830 C   0  0  0  0  0  0  0  0  0  0  0  0
   -0.9364   37.3484  120.5803 O   0  0  0  0  0  0  0  0  0  0  0  0
   -2.6566   38.7149  123.0258 H   0  0  0  0  0  0  0  0  0  0  0  0
   -0.5629   36.8422  122.8615 C   0  0  0  0  0  0  0  0  0  0  0  0
   -1.4879   35.8931  123.4270 N   0  0  0  0  0  0  0  0  0  0  0  0
   -1.9473   34.7014  122.8325 C   0  0  0  0  0  0  0  0  0  0  0  0
   -1.5377   34.3820  121.6899 O   0  0  0  0  0  0  0  0  0  0  0  0
   -1.8582   36.1241  124.3938 H   0  0  0  0  0  0  0  0  0  0  0  0
   -2.9166   33.8119  123.5339 C   0  0  0  0  0  0  0  0  0  0  0  0
   -2.9477   33.9695  124.9564 N   0  0  0  0  0  0  0  0  0  0  0  0
   -2.0048   33.2208  125.7739 C   0  0  0  0  0  0  0  0  0  0  0  0
   -1.1923   32.4729  125.1991 O   0  0  0  0  0  0  0  0  0  0  0  0
   -3.6011   34.5799  125.4849 H   0  0  0  0  0  0  0  0  0  0  0  0
   -1.9804   33.3162  127.2506 C   0  0  0  0  0  0  0  0  0  0  0  0
   -0.8916   34.2360  127.5990 N   0  0  0  0  0  0  0  0  0  0  0  0
   -0.8973   35.6049  127.2469 C   0  0  0  0  0  0  0  0  0  0  0  0
   -1.8632   36.0738  126.6126 O   0  0  0  0  0  0  0  0  0  0  0  0
   -0.1128   33.7640  128.1400 H   0  0  0  0  0  0  0  0  0  0  0  0
    0.2281   36.4699  127.6283 C   0  0  0  0  0  0  0  0  0  0  0  0
   -0.3186   37.8879  127.8397 C   0  0  0  0  0  0  0  0  0  0  0  0
   -0.8358   37.9991  129.1299 O   0  0  0  0  0  0  0  0  0  0  0  0
   -0.1593   37.9723  129.8309 H   0  0  0  0  0  0  0  0  0  0  0  0
    1.2725   36.5203  126.5390 C   0  0  0  0  0  0  0  0  0  0  0  0
    1.4704   35.2819  125.9477 O   0  0  0  0  0  0  0  0  0  0  0  0
    1.3556   35.3167  124.9576 H   0  0  0  0  0  0  0  0  0  0  0  0
   -3.3029   33.7241  127.7941 C   0  0  0  0  0  0  0  0  0  0  0  0
   -3.4599   33.0883  129.0319 O   0  0  0  0  0  0  0  0  0  0  0  0
   -3.0067   32.2129  128.9545 H   0  0  0  0  0  0  0  0  0  0  0  0
   -4.2746   33.9620  122.9004 C   0  0  0  0  0  0  0  0  0  0  0  0
   -4.1862   33.8014  121.5322 O   0  0  0  0  0  0  0  0  0  0  0  0
   -3.8347   34.6243  121.1137 H   0  0  0  0  0  0  0  0  0  0  0  0
    0.5275   35.9859  122.1812 C   0  0  0  0  0  0  0  0  0  0  0  0
    1.5232   35.7024  123.1115 O   0  0  0  0  0  0  0  0  0  0  0  0
    2.2332   36.3679  123.1230 H   0  0  0  0  0  0  0  0  0  0  0  0
   -2.5885   38.2783  119.6776 C   0  0  0  0  0  0  0  0  0  0  0  0
   -3.2949   38.7688  118.6136 O   0  0  0  0  0  0  0  0  0  0  0  0
   -2.6717   38.9014  117.8334 H   0  0  0  0  0  0  0  0  0  0  0  0
 27 28  1  0  0  0
 28 29  2  0  0  0
 28 25  1  0  0  0
 25 24  1  0  0  0
 24 23  1  0  0  0
 23 22  1  0  0  0
 22 16  1  0  0  0
 16 12  1  0  0  0
 12 13  1  0  0  0
 13 14  2  0  0  0
 13 11  1  0  0  0
 11 33  1  0  0  0
 33 34  1  0  0  0
 11  7  1  0  0  0
  7  8  1  0  0  0
  8  9  2  0  0  0
  8  6  1  0  0  0
  6 36  1  0  0  0
 36 37  1  0  0  0
  6  2  1  0  0  0
  2  3  1  0  0  0
  3  4  2  0  0  0
  3  1  1  0  0  0
  1 74  1  0  0  0
 74 75  1  0  0  0
  1 39  1  0  0  0
 39 40  1  0  0  0
 40 41  2  0  0  0
 40 43  1  0  0  0
 43 71  1  0  0  0
 71 72  1  0  0  0
 43 44  1  0  0  0
 44 45  1  0  0  0
 45 46  2  0  0  0
 45 48  1  0  0  0
 48 68  1  0  0  0
 68 69  1  0  0  0
 48 49  1  0  0  0
 49 50  1  0  0  0
 50 51  2  0  0  0
 50 53  1  0  0  0
 53 65  1  0  0  0
 65 66  1  0  0  0
 53 54  1  0  0  0
 54 55  1  0  0  0
 55 56  2  0  0  0
 55 58  1  0  0  0
 58 62  1  0  0  0
 62 63  1  0  0  0
 58 59  1  0  0  0
 59 60  1  0  0  0
 16 17  1  0  0  0
 17 18  1  0  0  0
 17 19  2  0  0  0
 27 30  1  0  0  0
 27 31  1  0  0  0
 29 32  1  0  0  0
 25 26  1  0  0  0
 12 15  1  0  0  0
 34 35  1  0  0  0
  7 10  1  0  0  0
 37 38  1  0  0  0
  2  5  1  0  0  0
 75 76  1  0  0  0
 39 42  1  0  0  0
 72 73  1  0  0  0
 44 47  1  0  0  0
 69 70  1  0  0  0
 49 52  1  0  0  0
 66 67  1  0  0  0
 54 57  1  0  0  0
 63 64  1  0  0  0
 60 61  1  0  0  0
 18 20  1  0  0  0
 18 21  1  0  0  0
M  END
> <minimizedAffinity>
-3.19658

> <CNNscore>
0.5043122172

> <CNNaffinity>
4.4556169510

> <CNN_VS>
2.2470221519

> <CNNaffinity_variance>
0.4563257694

$$$$
[H]N=C(N([H])[H])N([H])C([H])([H])C([H])([H])C([H])([H])[C@@]([H])(C(=O)N([H])[H])N([H])C(=O)[C@]([H])(N([H])C(=O)[C@@]([H])(N([H])C(=O)[C@]([H])(N([H])C(=O)[C@@]([H])(N([H])C(=O)[C@@]([H])(N([H])C(=O)[C@@]([H])(N([H])C(=O)C([H])(C([H])([H])O[H])C([H])([H])O[H])C([H])([H])O[H])C([H])([H])O[H])C([H])([H])O[H])C([H])([H])O[H])C([H])([H])O[H])C([H])([H])O[H]


 76 75  0  0  0  0  0  0  0  0999 V2000
   -2.6083   38.3600  121.3087 C   0  0  0  0  0  0  0  0  0  0  0  0
   -2.7707   40.7936  120.6856 N   0  0  0  0  0  0  0  0  0  0  0  0
   -2.2114   39.7567  121.4660 C   0  0  0  0  0  0  0  0  0  0  0  0
   -1.3159   40.0157  122.3522 O   0  0  0  0  0  0  0  0  0  0  0  0
   -3.5364   40.5605  119.9824 H   0  0  0  0  0  0  0  0  0  0  0  0
   -2.4277   42.1871  120.7397 C   0  0  0  0  0  0  0  0  0  0  0  0
   -3.5397   44.3851  120.0361 N   0  0  0  0  0  0  0  0  0  0  0  0
   -3.5699   43.1176  120.6794 C   0  0  0  0  0  0  0  0  0  0  0  0
   -4.6458   42.7881  121.2239 O   0  0  0  0  0  0  0  0  0  0  0  0
   -2.6414   44.6537  119.5511 H   0  0  0  0  0  0  0  0  0  0  0  0
   -4.6283   45.3192  119.9842 C   0  0  0  0  0  0  0  0  0  0  0  0
   -4.1423   47.3723  118.5415 N   0  0  0  0  0  0  0  0  0  0  0  0
   -4.2045   46.7006  119.7958 C   0  0  0  0  0  0  0  0  0  0  0  0
   -3.8662   47.3531  120.8181 O   0  0  0  0  0  0  0  0  0  0  0  0
   -4.4351   46.8230  117.7052 H   0  0  0  0  0  0  0  0  0  0  0  0
   -3.6956   48.7448  118.4284 C   0  0  0  0  0  0  0  0  0  0  0  0
   -2.2373   48.9147  118.4528 C   0  0  0  0  0  0  0  0  0  0  0  0
   -1.4608   48.5392  117.3354 N   0  0  0  0  0  0  0  0  0  0  0  0
   -1.5929   49.3965  119.4515 O   0  0  0  0  0  0  0  0  0  0  0  0
   -0.4948   48.2042  117.4600 H   0  0  0  0  0  0  0  0  0  0  0  0
   -1.8764   48.6072  116.3896 H   0  0  0  0  0  0  0  0  0  0  0  0
   -4.4597   49.6446  119.3168 C   0  0  0  0  0  0  0  0  0  0  0  0
   -5.2336   50.7635  118.7120 C   0  0  0  0  0  0  0  0  0  0  0  0
   -5.2298   52.0373  119.4902 C   0  0  0  0  0  0  0  0  0  0  0  0
   -4.3950   53.0635  118.8610 N   0  0  0  0  0  0  0  0  0  0  0  0
   -4.7819   53.6055  118.0861 H   0  0  0  0  0  0  0  0  0  0  0  0
   -1.9629   52.5844  118.8260 N   0  0  0  0  0  0  0  0  0  0  0  0
   -3.0957   53.2679  119.3383 C   0  0  0  0  0  0  0  0  0  0  0  0
   -2.8761   54.1232  120.3037 N   0  0  0  0  0  0  0  0  0  0  0  0
   -1.2949   52.1083  119.4601 H   0  0  0  0  0  0  0  0  0  0  0  0
   -1.7953   52.5589  117.8027 H   0  0  0  0  0  0  0  0  0  0  0  0
   -1.9286   54.3068  120.6889 H   0  0  0  0  0  0  0  0  0  0  0  0
   -5.5361   44.9891  118.7710 C   0  0  0  0  0  0  0  0  0  0  0  0
   -4.7483   44.4437  117.7428 O   0  0  0  0  0  0  0  0  0  0  0  0
   -5.2870   44.4791  116.9208 H   0  0  0  0  0  0  0  0  0  0  0  0
   -1.3036   42.5552  119.8247 C   0  0  0  0  0  0  0  0  0  0  0  0
   -0.8247   41.5075  119.0727 O   0  0  0  0  0  0  0  0  0  0  0  0
    0.1293   41.6019  118.8918 H   0  0  0  0  0  0  0  0  0  0  0  0
   -1.6545   37.5076  122.0313 N   0  0  0  0  0  0  0  0  0  0  0  0
   -2.0937   36.1764  122.3302 C   0  0  0  0  0  0  0  0  0  0  0  0
   -3.2489   35.8044  121.9699 O   0  0  0  0  0  0  0  0  0  0  0  0
   -0.7270   37.8888  122.2895 H   0  0  0  0  0  0  0  0  0  0  0  0
   -1.2221   35.2237  123.0442 C   0  0  0  0  0  0  0  0  0  0  0  0
   -1.3807   35.4713  124.4548 N   0  0  0  0  0  0  0  0  0  0  0  0
   -2.3840   34.9538  125.2976 C   0  0  0  0  0  0  0  0  0  0  0  0
   -3.2574   34.1880  124.8220 O   0  0  0  0  0  0  0  0  0  0  0  0
   -0.6618   36.1131  124.8980 H   0  0  0  0  0  0  0  0  0  0  0  0
   -2.4316   35.3023  126.7463 C   0  0  0  0  0  0  0  0  0  0  0  0
   -1.3864   34.7213  127.5333 N   0  0  0  0  0  0  0  0  0  0  0  0
   -1.6458   33.4847  128.2553 C   0  0  0  0  0  0  0  0  0  0  0  0
   -2.7740   32.9686  128.1518 O   0  0  0  0  0  0  0  0  0  0  0  0
   -0.4297   35.1081  127.6516 H   0  0  0  0  0  0  0  0  0  0  0  0
   -0.6247   32.8274  129.1013 C   0  0  0  0  0  0  0  0  0  0  0  0
    0.6306   33.5598  128.8985 N   0  0  0  0  0  0  0  0  0  0  0  0
    1.7475   33.0045  128.2338 C   0  0  0  0  0  0  0  0  0  0  0  0
    1.6844   31.8410  127.7897 O   0  0  0  0  0  0  0  0  0  0  0  0
    0.6031   34.5401  129.2989 H   0  0  0  0  0  0  0  0  0  0  0  0
    2.9750   33.7955  128.0660 C   0  0  0  0  0  0  0  0  0  0  0  0
    2.6072   35.0815  127.3142 C   0  0  0  0  0  0  0  0  0  0  0  0
    1.5561   34.8217  126.4355 O   0  0  0  0  0  0  0  0  0  0  0  0
    0.7077   34.6356  126.8777 H   0  0  0  0  0  0  0  0  0  0  0  0
    4.0016   33.0455  127.2516 C   0  0  0  0  0  0  0  0  0  0  0  0
    4.6795   32.1013  128.0075 O   0  0  0  0  0  0  0  0  0  0  0  0
    4.6291   31.1910  127.6032 H   0  0  0  0  0  0  0  0  0  0  0  0
   -1.0533   32.7607  130.5235 C   0  0  0  0  0  0  0  0  0  0  0  0
    0.0874   32.4967  131.2916 O   0  0  0  0  0  0  0  0  0  0  0  0
    0.6685   31.9196  130.7375 H   0  0  0  0  0  0  0  0  0  0  0  0
   -2.5095   36.7991  126.8934 C   0  0  0  0  0  0  0  0  0  0  0  0
   -3.0741   37.3633  125.7671 O   0  0  0  0  0  0  0  0  0  0  0  0
   -2.4087   37.4102  125.0385 H   0  0  0  0  0  0  0  0  0  0  0  0
   -1.8197   33.8188  122.8121 C   0  0  0  0  0  0  0  0  0  0  0  0
   -0.8781   32.8622  123.1805 O   0  0  0  0  0  0  0  0  0  0  0  0
   -0.2980   32.5971  122.4454 H   0  0  0  0  0  0  0  0  0  0  0  0
   -2.5226   37.9419  119.8165 C   0  0  0  0  0  0  0  0  0  0  0  0
   -1.4953   38.6459  119.2501 O   0  0  0  0  0  0  0  0  0  0  0  0
   -0.8991   38.0130  118.7416 H   0  0  0  0  0  0  0  0  0  0  0  0
 27 28  1  0  0  0
 28 29  2  0  0  0
 28 25  1  0  0  0
 25 24  1  0  0  0
 24 23  1  0  0  0
 23 22  1  0  0  0
 22 16  1  0  0  0
 16 12  1  0  0  0
 12 13  1  0  0  0
 13 14  2  0  0  0
 13 11  1  0  0  0
 11 33  1  0  0  0
 33 34  1  0  0  0
 11  7  1  0  0  0
  7  8  1  0  0  0
  8  9  2  0  0  0
  8  6  1  0  0  0
  6 36  1  0  0  0
 36 37  1  0  0  0
  6  2  1  0  0  0
  2  3  1  0  0  0
  3  4  2  0  0  0
  3  1  1  0  0  0
  1 74  1  0  0  0
 74 75  1  0  0  0
  1 39  1  0  0  0
 39 40  1  0  0  0
 40 41  2  0  0  0
 40 43  1  0  0  0
 43 71  1  0  0  0
 71 72  1  0  0  0
 43 44  1  0  0  0
 44 45  1  0  0  0
 45 46  2  0  0  0
 45 48  1  0  0  0
 48 68  1  0  0  0
 68 69  1  0  0  0
 48 49  1  0  0  0
 49 50  1  0  0  0
 50 51  2  0  0  0
 50 53  1  0  0  0
 53 65  1  0  0  0
 65 66  1  0  0  0
 53 54  1  0  0  0
 54 55  1  0  0  0
 55 56  2  0  0  0
 55 58  1  0  0  0
 58 62  1  0  0  0
 62 63  1  0  0  0
 58 59  1  0  0  0
 59 60  1  0  0  0
 16 17  1  0  0  0
 17 18  1  0  0  0
 17 19  2  0  0  0
 27 30  1  0  0  0
 27 31  1  0  0  0
 29 32  1  0  0  0
 25 26  1  0  0  0
 12 15  1  0  0  0
 34 35  1  0  0  0
  7 10  1  0  0  0
 37 38  1  0  0  0
  2  5  1  0  0  0
 75 76  1  0  0  0
 39 42  1  0  0  0
 72 73  1  0  0  0
 44 47  1  0  0  0
 69 70  1  0  0  0
 49 52  1  0  0  0
 66 67  1  0  0  0
 54 57  1  0  0  0
 63 64  1  0  0  0
 60 61  1  0  0  0
 18 20  1  0  0  0
 18 21  1  0  0  0
M  END
> <minimizedAffinity>
-3.45898

> <CNNscore>
0.4211438894

> <CNNaffinity>
4.3711428642

> <CNN_VS>
1.8408801556

> <CNNaffinity_variance>
0.3587038219

$$$$
[H]N=C(N([H])[H])N([H])C([H])([H])C([H])([H])C([H])([H])[C@@]([H])(C(=O)N([H])[H])N([H])C(=O)[C@]([H])(N([H])C(=O)[C@@]([H])(N([H])C(=O)[C@]([H])(N([H])C(=O)[C@@]([H])(N([H])C(=O)[C@@]([H])(N([H])C(=O)[C@@]([H])(N([H])C(=O)C([H])(C([H])([H])O[H])C([H])([H])O[H])C([H])([H])O[H])C([H])([H])O[H])C([H])([H])O[H])C([H])([H])O[H])C([H])([H])O[H])C([H])([H])O[H]


 76 75  0  0  0  0  0  0  0  0999 V2000
   19.5767   40.7035  138.0647 C   0  0  0  0  0  0  0  0  0  0  0  0
   19.4910   41.3444  140.4975 N   0  0  0  0  0  0  0  0  0  0  0  0
   18.8475   40.9302  139.3096 C   0  0  0  0  0  0  0  0  0  0  0  0
   17.5767   40.7323  139.2894 O   0  0  0  0  0  0  0  0  0  0  0  0
   20.5389   41.5366  140.4818 H   0  0  0  0  0  0  0  0  0  0  0  0
   18.8733   41.5626  141.7755 C   0  0  0  0  0  0  0  0  0  0  0  0
   18.5893   43.9539  142.6496 N   0  0  0  0  0  0  0  0  0  0  0  0
   18.1329   42.8310  141.9065 C   0  0  0  0  0  0  0  0  0  0  0  0
   17.0283   42.9468  141.3329 O   0  0  0  0  0  0  0  0  0  0  0  0
   19.5347   43.8691  143.1115 H   0  0  0  0  0  0  0  0  0  0  0  0
   17.8777   45.1897  142.8132 C   0  0  0  0  0  0  0  0  0  0  0  0
   19.1424   47.3933  143.0916 N   0  0  0  0  0  0  0  0  0  0  0  0
   18.5997   46.1796  143.6021 C   0  0  0  0  0  0  0  0  0  0  0  0
   18.7578   45.9470  144.8294 O   0  0  0  0  0  0  0  0  0  0  0  0
   18.9949   47.5774  142.0761 H   0  0  0  0  0  0  0  0  0  0  0  0
   19.8630   48.3247  143.9339 C   0  0  0  0  0  0  0  0  0  0  0  0
   20.0594   49.6542  143.3426 C   0  0  0  0  0  0  0  0  0  0  0  0
   18.9482   50.4826  143.0751 N   0  0  0  0  0  0  0  0  0  0  0  0
   21.2085   50.1364  143.0395 O   0  0  0  0  0  0  0  0  0  0  0  0
   18.9711   51.1491  142.2901 H   0  0  0  0  0  0  0  0  0  0  0  0
   18.1114   50.4111  143.6805 H   0  0  0  0  0  0  0  0  0  0  0  0
   21.0642   47.7062  144.5317 C   0  0  0  0  0  0  0  0  0  0  0  0
   21.6831   46.5355  143.8512 C   0  0  0  0  0  0  0  0  0  0  0  0
   23.0958   46.7268  143.4086 C   0  0  0  0  0  0  0  0  0  0  0  0
   23.3182   46.2283  142.0492 N   0  0  0  0  0  0  0  0  0  0  0  0
   23.8053   46.8265  141.3792 H   0  0  0  0  0  0  0  0  0  0  0  0
   23.6958   43.9334  141.1907 N   0  0  0  0  0  0  0  0  0  0  0  0
   22.8558   44.9519  141.7103 C   0  0  0  0  0  0  0  0  0  0  0  0
   21.5932   44.6463  141.8663 N   0  0  0  0  0  0  0  0  0  0  0  0
   23.4367   43.4146  140.3312 H   0  0  0  0  0  0  0  0  0  0  0  0
   24.5828   43.6997  141.6749 H   0  0  0  0  0  0  0  0  0  0  0  0
   21.2062   43.7117  141.6282 H   0  0  0  0  0  0  0  0  0  0  0  0
   17.6498   45.8433  141.4255 C   0  0  0  0  0  0  0  0  0  0  0  0
   16.2771   46.0921  141.2548 O   0  0  0  0  0  0  0  0  0  0  0  0
   16.1352   46.2658  140.2973 H   0  0  0  0  0  0  0  0  0  0  0  0
   19.7816   41.2750  142.9281 C   0  0  0  0  0  0  0  0  0  0  0  0
   20.9449   42.0093  142.9240 O   0  0  0  0  0  0  0  0  0  0  0  0
   21.6846   41.5125  143.3212 H   0  0  0  0  0  0  0  0  0  0  0  0
   20.1602   39.3555  138.0910 N   0  0  0  0  0  0  0  0  0  0  0  0
   21.5895   39.2815  138.0122 C   0  0  0  0  0  0  0  0  0  0  0  0
   22.2661   40.3480  137.9258 O   0  0  0  0  0  0  0  0  0  0  0  0
   19.5356   38.5329  138.1643 H   0  0  0  0  0  0  0  0  0  0  0  0
   22.2926   37.9845  138.0381 C   0  0  0  0  0  0  0  0  0  0  0  0
   21.7499   37.2241  139.1351 N   0  0  0  0  0  0  0  0  0  0  0  0
   22.4539   36.7226  140.2477 C   0  0  0  0  0  0  0  0  0  0  0  0
   23.6873   36.9335  140.3458 O   0  0  0  0  0  0  0  0  0  0  0  0
   20.7091   37.0242  139.0926 H   0  0  0  0  0  0  0  0  0  0  0  0
   21.7618   35.9403  141.3114 C   0  0  0  0  0  0  0  0  0  0  0  0
   20.3324   35.9660  141.2347 N   0  0  0  0  0  0  0  0  0  0  0  0
   19.6624   35.1735  140.2145 C   0  0  0  0  0  0  0  0  0  0  0  0
   20.3636   34.4888  139.4467 O   0  0  0  0  0  0  0  0  0  0  0  0
   19.7017   36.5161  141.8499 H   0  0  0  0  0  0  0  0  0  0  0  0
   18.1907   35.1555  140.0592 C   0  0  0  0  0  0  0  0  0  0  0  0
   17.6235   35.6117  141.3332 N   0  0  0  0  0  0  0  0  0  0  0  0
   16.9401   34.7526  142.2236 C   0  0  0  0  0  0  0  0  0  0  0  0
   16.8031   33.5475  141.9337 O   0  0  0  0  0  0  0  0  0  0  0  0
   17.7853   36.6437  141.5085 H   0  0  0  0  0  0  0  0  0  0  0  0
   16.3961   35.2773  143.4842 C   0  0  0  0  0  0  0  0  0  0  0  0
   17.5636   35.8505  144.2983 C   0  0  0  0  0  0  0  0  0  0  0  0
   17.8499   37.1412  143.8549 O   0  0  0  0  0  0  0  0  0  0  0  0
   17.1587   37.7948  144.0670 H   0  0  0  0  0  0  0  0  0  0  0  0
   15.7427   34.1838  144.2948 C   0  0  0  0  0  0  0  0  0  0  0  0
   14.6665   33.6142  143.6316 O   0  0  0  0  0  0  0  0  0  0  0  0
   14.7562   32.6241  143.5528 H   0  0  0  0  0  0  0  0  0  0  0  0
   17.7544   35.9624  138.8889 C   0  0  0  0  0  0  0  0  0  0  0  0
   18.7949   36.8474  138.5804 O   0  0  0  0  0  0  0  0  0  0  0  0
   19.2205   37.0869  139.4402 H   0  0  0  0  0  0  0  0  0  0  0  0
   22.3194   34.5417  141.3400 C   0  0  0  0  0  0  0  0  0  0  0  0
   23.0041   34.2741  140.1715 O   0  0  0  0  0  0  0  0  0  0  0  0
   22.3692   34.0695  139.4429 H   0  0  0  0  0  0  0  0  0  0  0  0
   21.8602   37.2222  136.7666 C   0  0  0  0  0  0  0  0  0  0  0  0
   22.9013   37.2586  135.8435 O   0  0  0  0  0  0  0  0  0  0  0  0
   22.8528   38.0252  135.2459 H   0  0  0  0  0  0  0  0  0  0  0  0
   20.7680   41.6920  137.9523 C   0  0  0  0  0  0  0  0  0  0  0  0
   20.3365   42.7774  137.2400 O   0  0  0  0  0  0  0  0  0  0  0  0
   20.5863   43.6195  137.7331 H   0  0  0  0  0  0  0  0  0  0  0  0
 27 28  1  0  0  0
 28 29  2  0  0  0
 28 25  1  0  0  0
 25 24  1  0  0  0
 24 23  1  0  0  0
 23 22  1  0  0  0
 22 16  1  0  0  0
 16 12  1  0  0  0
 12 13  1  0  0  0
 13 14  2  0  0  0
 13 11  1  0  0  0
 11 33  1  0  0  0
 33 34  1  0  0  0
 11  7  1  0  0  0
  7  8  1  0  0  0
  8  9  2  0  0  0
  8  6  1  0  0  0
  6 36  1  0  0  0
 36 37  1  0  0  0
  6  2  1  0  0  0
  2  3  1  0  0  0
  3  4  2  0  0  0
  3  1  1  0  0  0
  1 74  1  0  0  0
 74 75  1  0  0  0
  1 39  1  0  0  0
 39 40  1  0  0  0
 40 41  2  0  0  0
 40 43  1  0  0  0
 43 71  1  0  0  0
 71 72  1  0  0  0
 43 44  1  0  0  0
 44 45  1  0  0  0
 45 46  2  0  0  0
 45 48  1  0  0  0
 48 68  1  0  0  0
 68 69  1  0  0  0
 48 49  1  0  0  0
 49 50  1  0  0  0
 50 51  2  0  0  0
 50 53  1  0  0  0
 53 65  1  0  0  0
 65 66  1  0  0  0
 53 54  1  0  0  0
 54 55  1  0  0  0
 55 56  2  0  0  0
 55 58  1  0  0  0
 58 62  1  0  0  0
 62 63  1  0  0  0
 58 59  1  0  0  0
 59 60  1  0  0  0
 16 17  1  0  0  0
 17 18  1  0  0  0
 17 19  2  0  0  0
 27 30  1  0  0  0
 27 31  1  0  0  0
 29 32  1  0  0  0
 25 26  1  0  0  0
 12 15  1  0  0  0
 34 35  1  0  0  0
  7 10  1  0  0  0
 37 38  1  0  0  0
  2  5  1  0  0  0
 75 76  1  0  0  0
 39 42  1  0  0  0
 72 73  1  0  0  0
 44 47  1  0  0  0
 69 70  1  0  0  0
 49 52  1  0  0  0
 66 67  1  0  0  0
 54 57  1  0  0  0
 63 64  1  0  0  0
 60 61  1  0  0  0
 18 20  1  0  0  0
 18 21  1  0  0  0
M  END
> <minimizedAffinity>
-3.11131

> <CNNscore>
0.3842715919

> <CNNaffinity>
5.0583996773

> <CNN_VS>
1.9437992573

> <CNNaffinity_variance>
0.9941495061

$$$$
[H]N=C(N([H])[H])N([H])C([H])([H])C([H])([H])C([H])([H])[C@@]([H])(C(=O)N([H])[H])N([H])C(=O)[C@]([H])(N([H])C(=O)[C@@]([H])(N([H])C(=O)[C@]([H])(N([H])C(=O)[C@@]([H])(N([H])C(=O)[C@@]([H])(N([H])C(=O)[C@@]([H])(N([H])C(=O)C([H])(C([H])([H])O[H])C([H])([H])O[H])C([H])([H])O[H])C([H])([H])O[H])C([H])([H])O[H])C([H])([H])O[H])C([H])([H])O[H])C([H])([H])O[H]


 76 75  0  0  0  0  0  0  0  0999 V2000
   -3.0069   39.0670  121.7202 C   0  0  0  0  0  0  0  0  0  0  0  0
   -3.1888   41.4569  120.9507 N   0  0  0  0  0  0  0  0  0  0  0  0
   -2.5216   40.4437  121.6754 C   0  0  0  0  0  0  0  0  0  0  0  0
   -1.4440   40.7072  122.3263 O   0  0  0  0  0  0  0  0  0  0  0  0
   -4.0990   41.2238  120.4482 H   0  0  0  0  0  0  0  0  0  0  0  0
   -2.7787   42.8267  120.8171 C   0  0  0  0  0  0  0  0  0  0  0  0
   -3.7801   45.0553  120.0471 N   0  0  0  0  0  0  0  0  0  0  0  0
   -3.8779   43.8041  120.7151 C   0  0  0  0  0  0  0  0  0  0  0  0
   -4.9775   43.5329  121.2441 O   0  0  0  0  0  0  0  0  0  0  0  0
   -2.8617   45.2747  119.5751 H   0  0  0  0  0  0  0  0  0  0  0  0
   -4.8258   46.0342  119.9543 C   0  0  0  0  0  0  0  0  0  0  0  0
   -4.4964   48.3688  118.9674 N   0  0  0  0  0  0  0  0  0  0  0  0
   -4.3457   47.4090  120.0087 C   0  0  0  0  0  0  0  0  0  0  0  0
   -3.7513   47.7799  121.0549 O   0  0  0  0  0  0  0  0  0  0  0  0
   -4.9996   48.0507  118.1115 H   0  0  0  0  0  0  0  0  0  0  0  0
   -3.9789   49.7158  119.0858 C   0  0  0  0  0  0  0  0  0  0  0  0
   -2.5684   49.8621  118.7050 C   0  0  0  0  0  0  0  0  0  0  0  0
   -2.2037   49.9163  117.3423 N   0  0  0  0  0  0  0  0  0  0  0  0
   -1.6075   49.9470  119.5500 O   0  0  0  0  0  0  0  0  0  0  0  0
   -1.2897   49.5568  117.0321 H   0  0  0  0  0  0  0  0  0  0  0  0
   -2.8678   50.3240  116.6608 H   0  0  0  0  0  0  0  0  0  0  0  0
   -4.3635   50.3395  120.3687 C   0  0  0  0  0  0  0  0  0  0  0  0
   -5.5483   51.2405  120.4023 C   0  0  0  0  0  0  0  0  0  0  0  0
   -5.2440   52.6901  120.5877 C   0  0  0  0  0  0  0  0  0  0  0  0
   -3.9107   53.0396  120.0918 N   0  0  0  0  0  0  0  0  0  0  0  0
   -3.1080   52.4945  120.4120 H   0  0  0  0  0  0  0  0  0  0  0  0
   -2.8138   54.1359  118.1576 N   0  0  0  0  0  0  0  0  0  0  0  0
   -3.7775   54.1083  119.1984 C   0  0  0  0  0  0  0  0  0  0  0  0
   -4.5624   55.1505  119.2971 N   0  0  0  0  0  0  0  0  0  0  0  0
   -2.1909   54.9546  118.0284 H   0  0  0  0  0  0  0  0  0  0  0  0
   -2.7280   53.3280  117.5128 H   0  0  0  0  0  0  0  0  0  0  0  0
   -4.4993   55.9659  118.6561 H   0  0  0  0  0  0  0  0  0  0  0  0
   -5.5459   45.8944  118.5880 C   0  0  0  0  0  0  0  0  0  0  0  0
   -4.5854   45.7013  117.5802 O   0  0  0  0  0  0  0  0  0  0  0  0
   -5.0355   45.8655  116.7215 H   0  0  0  0  0  0  0  0  0  0  0  0
   -1.7017   43.0247  119.7987 C   0  0  0  0  0  0  0  0  0  0  0  0
   -2.1037   42.7952  118.5033 O   0  0  0  0  0  0  0  0  0  0  0  0
   -1.3743   42.4466  117.9572 H   0  0  0  0  0  0  0  0  0  0  0  0
   -2.3829   38.3769  122.8572 N   0  0  0  0  0  0  0  0  0  0  0  0
   -1.1563   37.6872  122.5849 C   0  0  0  0  0  0  0  0  0  0  0  0
   -0.6787   37.7020  121.4126 O   0  0  0  0  0  0  0  0  0  0  0  0
   -2.8387   38.4140  123.7862 H   0  0  0  0  0  0  0  0  0  0  0  0
   -0.4310   36.9645  123.6473 C   0  0  0  0  0  0  0  0  0  0  0  0
   -1.4135   36.4733  124.5798 N   0  0  0  0  0  0  0  0  0  0  0  0
   -2.5205   35.6518  124.2889 C   0  0  0  0  0  0  0  0  0  0  0  0
   -2.7186   35.2758  123.1079 O   0  0  0  0  0  0  0  0  0  0  0  0
   -1.2826   36.7665  125.5908 H   0  0  0  0  0  0  0  0  0  0  0  0
   -3.4664   35.2228  125.3583 C   0  0  0  0  0  0  0  0  0  0  0  0
   -2.8661   35.0360  126.6445 N   0  0  0  0  0  0  0  0  0  0  0  0
   -2.3934   33.7122  127.0212 C   0  0  0  0  0  0  0  0  0  0  0  0
   -2.5205   32.7861  126.1990 O   0  0  0  0  0  0  0  0  0  0  0  0
   -2.7339   35.7725  127.3650 H   0  0  0  0  0  0  0  0  0  0  0  0
   -1.7744   33.4320  128.3360 C   0  0  0  0  0  0  0  0  0  0  0  0
   -0.3812   33.0513  128.0772 N   0  0  0  0  0  0  0  0  0  0  0  0
    0.4902   33.8191  127.2717 C   0  0  0  0  0  0  0  0  0  0  0  0
    0.0773   34.8731  126.7486 O   0  0  0  0  0  0  0  0  0  0  0  0
   -0.1059   32.1491  128.5593 H   0  0  0  0  0  0  0  0  0  0  0  0
    1.8752   33.3778  127.0540 C   0  0  0  0  0  0  0  0  0  0  0  0
    2.7435   33.9886  128.1618 C   0  0  0  0  0  0  0  0  0  0  0  0
    1.9567   34.8085  128.9701 O   0  0  0  0  0  0  0  0  0  0  0  0
    1.3072   34.3242  129.5117 H   0  0  0  0  0  0  0  0  0  0  0  0
    2.3985   33.8567  125.7211 C   0  0  0  0  0  0  0  0  0  0  0  0
    1.6777   33.3333  124.6586 O   0  0  0  0  0  0  0  0  0  0  0  0
    1.3264   34.0466  124.0565 H   0  0  0  0  0  0  0  0  0  0  0  0
   -1.9152   34.5855  129.2636 C   0  0  0  0  0  0  0  0  0  0  0  0
   -2.5657   34.1203  130.4131 O   0  0  0  0  0  0  0  0  0  0  0  0
   -3.1954   33.4198  130.1120 H   0  0  0  0  0  0  0  0  0  0  0  0
   -4.6373   36.1693  125.3929 C   0  0  0  0  0  0  0  0  0  0  0  0
   -4.2186   37.4599  125.1389 O   0  0  0  0  0  0  0  0  0  0  0  0
   -3.8040   37.8496  125.9464 H   0  0  0  0  0  0  0  0  0  0  0  0
    0.1692   35.7015  122.9919 C   0  0  0  0  0  0  0  0  0  0  0  0
    1.5390   35.8866  122.8282 O   0  0  0  0  0  0  0  0  0  0  0  0
    1.7689   36.2853  121.9708 H   0  0  0  0  0  0  0  0  0  0  0  0
   -2.5623   38.2989  120.4469 C   0  0  0  0  0  0  0  0  0  0  0  0
   -2.0719   39.2191  119.5612 O   0  0  0  0  0  0  0  0  0  0  0  0
   -1.1778   38.9068  119.2180 H   0  0  0  0  0  0  0  0  0  0  0  0
 27 28  1  0  0  0
 28 29  2  0  0  0
 28 25  1  0  0  0
 25 24  1  0  0  0
 24 23  1  0  0  0
 23 22  1  0  0  0
 22 16  1  0  0  0
 16 12  1  0  0  0
 12 13  1  0  0  0
 13 14  2  0  0  0
 13 11  1  0  0  0
 11 33  1  0  0  0
 33 34  1  0  0  0
 11  7  1  0  0  0
  7  8  1  0  0  0
  8  9  2  0  0  0
  8  6  1  0  0  0
  6 36  1  0  0  0
 36 37  1  0  0  0
  6  2  1  0  0  0
  2  3  1  0  0  0
  3  4  2  0  0  0
  3  1  1  0  0  0
  1 74  1  0  0  0
 74 75  1  0  0  0
  1 39  1  0  0  0
 39 40  1  0  0  0
 40 41  2  0  0  0
 40 43  1  0  0  0
 43 71  1  0  0  0
 71 72  1  0  0  0
 43 44  1  0  0  0
 44 45  1  0  0  0
 45 46  2  0  0  0
 45 48  1  0  0  0
 48 68  1  0  0  0
 68 69  1  0  0  0
 48 49  1  0  0  0
 49 50  1  0  0  0
 50 51  2  0  0  0
 50 53  1  0  0  0
 53 65  1  0  0  0
 65 66  1  0  0  0
 53 54  1  0  0  0
 54 55  1  0  0  0
 55 56  2  0  0  0
 55 58  1  0  0  0
 58 62  1  0  0  0
 62 63  1  0  0  0
 58 59  1  0  0  0
 59 60  1  0  0  0
 16 17  1  0  0  0
 17 18  1  0  0  0
 17 19  2  0  0  0
 27 30  1  0  0  0
 27 31  1  0  0  0
 29 32  1  0  0  0
 25 26  1  0  0  0
 12 15  1  0  0  0
 34 35  1  0  0  0
  7 10  1  0  0  0
 37 38  1  0  0  0
  2  5  1  0  0  0
 75 76  1  0  0  0
 39 42  1  0  0  0
 72 73  1  0  0  0
 44 47  1  0  0  0
 69 70  1  0  0  0
 49 52  1  0  0  0
 66 67  1  0  0  0
 54 57  1  0  0  0
 63 64  1  0  0  0
 60 61  1  0  0  0
 18 20  1  0  0  0
 18 21  1  0  0  0
M  END
> <minimizedAffinity>
-3.56037

> <CNNscore>
0.3794159591

> <CNNaffinity>
4.4094796181

> <CNN_VS>
1.6730269194

> <CNNaffinity_variance>
0.1574599147

$$$$
[H]N=C(N([H])[H])N([H])C([H])([H])C([H])([H])C([H])([H])[C@@]([H])(C(=O)N([H])[H])N([H])C(=O)[C@]([H])(N([H])C(=O)[C@@]([H])(N([H])C(=O)[C@]([H])(N([H])C(=O)[C@@]([H])(N([H])C(=O)[C@@]([H])(N([H])C(=O)[C@@]([H])(N([H])C(=O)C([H])(C([H])([H])O[H])C([H])([H])O[H])C([H])([H])O[H])C([H])([H])O[H])C([H])([H])O[H])C([H])([H])O[H])C([H])([H])O[H])C([H])([H])O[H]


 76 75  0  0  0  0  0  0  0  0999 V2000
   17.7488   41.9888  138.6366 C   0  0  0  0  0  0  0  0  0  0  0  0
   20.1400   41.9412  139.4219 N   0  0  0  0  0  0  0  0  0  0  0  0
   18.7641   41.7138  139.6498 C   0  0  0  0  0  0  0  0  0  0  0  0
   18.3568   41.2449  140.7762 O   0  0  0  0  0  0  0  0  0  0  0  0
   20.4510   42.3635  138.4944 H   0  0  0  0  0  0  0  0  0  0  0  0
   21.2155   41.6752  140.3357 C   0  0  0  0  0  0  0  0  0  0  0  0
   21.3955   39.2553  139.5144 N   0  0  0  0  0  0  0  0  0  0  0  0
   21.5451   40.2498  140.5194 C   0  0  0  0  0  0  0  0  0  0  0  0
   21.9875   39.8705  141.6252 O   0  0  0  0  0  0  0  0  0  0  0  0
   21.0489   39.5776  138.5708 H   0  0  0  0  0  0  0  0  0  0  0  0
   21.6853   37.8586  139.6748 C   0  0  0  0  0  0  0  0  0  0  0  0
   21.7434   36.7805  141.9915 N   0  0  0  0  0  0  0  0  0  0  0  0
   21.0517   37.2608  140.8431 C   0  0  0  0  0  0  0  0  0  0  0  0
   19.7967   37.1594  140.8399 O   0  0  0  0  0  0  0  0  0  0  0  0
   22.7812   36.8804  141.9845 H   0  0  0  0  0  0  0  0  0  0  0  0
   21.0471   36.1830  143.1115 C   0  0  0  0  0  0  0  0  0  0  0  0
   20.7442   37.1128  144.2067 C   0  0  0  0  0  0  0  0  0  0  0  0
   19.7544   38.1055  144.0408 N   0  0  0  0  0  0  0  0  0  0  0  0
   21.3345   37.0893  145.3450 O   0  0  0  0  0  0  0  0  0  0  0  0
   19.8311   39.0064  144.5342 H   0  0  0  0  0  0  0  0  0  0  0  0
   18.9503   37.9135  143.4177 H   0  0  0  0  0  0  0  0  0  0  0  0
   21.6562   34.8981  143.5127 C   0  0  0  0  0  0  0  0  0  0  0  0
   23.1111   34.6883  143.2762 C   0  0  0  0  0  0  0  0  0  0  0  0
   23.5225   33.2732  143.0385 C   0  0  0  0  0  0  0  0  0  0  0  0
   23.6999   32.9843  141.6134 N   0  0  0  0  0  0  0  0  0  0  0  0
   24.6481   32.8955  141.2435 H   0  0  0  0  0  0  0  0  0  0  0  0
   22.1269   33.8415  139.8996 N   0  0  0  0  0  0  0  0  0  0  0  0
   22.5675   32.8411  140.8040 C   0  0  0  0  0  0  0  0  0  0  0  0
   21.8551   31.7449  140.8566 N   0  0  0  0  0  0  0  0  0  0  0  0
   21.1406   34.1615  139.8967 H   0  0  0  0  0  0  0  0  0  0  0  0
   22.7971   34.2613  139.2285 H   0  0  0  0  0  0  0  0  0  0  0  0
   21.0075   31.5954  140.2743 H   0  0  0  0  0  0  0  0  0  0  0  0
   21.1403   37.0734  138.4535 C   0  0  0  0  0  0  0  0  0  0  0  0
   19.9399   37.6656  138.0251 O   0  0  0  0  0  0  0  0  0  0  0  0
   19.4982   37.0184  137.4309 H   0  0  0  0  0  0  0  0  0  0  0  0
   21.1038   42.4365  141.6180 C   0  0  0  0  0  0  0  0  0  0  0  0
   20.0138   42.0920  142.3832 O   0  0  0  0  0  0  0  0  0  0  0  0
   19.6797   42.8522  142.8952 H   0  0  0  0  0  0  0  0  0  0  0  0
   16.6443   41.0329  138.7949 N   0  0  0  0  0  0  0  0  0  0  0  0
   17.0140   39.6570  138.9515 C   0  0  0  0  0  0  0  0  0  0  0  0
   18.2383   39.3349  138.9466 O   0  0  0  0  0  0  0  0  0  0  0  0
   15.6684   41.3788  138.7885 H   0  0  0  0  0  0  0  0  0  0  0  0
   15.9948   38.6046  139.1273 C   0  0  0  0  0  0  0  0  0  0  0  0
   16.6825   37.4042  139.5302 N   0  0  0  0  0  0  0  0  0  0  0  0
   16.7699   36.1965  138.8102 C   0  0  0  0  0  0  0  0  0  0  0  0
   16.2094   36.1012  137.6912 O   0  0  0  0  0  0  0  0  0  0  0  0
   17.1718   37.4419  140.4706 H   0  0  0  0  0  0  0  0  0  0  0  0
   17.5131   35.0245  139.3547 C   0  0  0  0  0  0  0  0  0  0  0  0
   17.4775   34.9070  140.7811 N   0  0  0  0  0  0  0  0  0  0  0  0
   18.4828   34.0959  141.4514 C   0  0  0  0  0  0  0  0  0  0  0  0
   19.3499   33.5383  140.7535 O   0  0  0  0  0  0  0  0  0  0  0  0
   16.7798   35.3517  141.4091 H   0  0  0  0  0  0  0  0  0  0  0  0
   18.5079   33.9119  142.9197 C   0  0  0  0  0  0  0  0  0  0  0  0
   17.1477   34.1735  143.4039 N   0  0  0  0  0  0  0  0  0  0  0  0
   16.6859   35.4657  143.7426 C   0  0  0  0  0  0  0  0  0  0  0  0
   17.4524   36.4429  143.6304 O   0  0  0  0  0  0  0  0  0  0  0  0
   16.5584   33.2955  143.4668 H   0  0  0  0  0  0  0  0  0  0  0  0
   15.3096   35.6556  144.2222 C   0  0  0  0  0  0  0  0  0  0  0  0
   14.3744   35.5895  143.0076 C   0  0  0  0  0  0  0  0  0  0  0  0
   15.0719   35.9731  141.8627 O   0  0  0  0  0  0  0  0  0  0  0  0
   15.7560   35.3370  141.5845 H   0  0  0  0  0  0  0  0  0  0  0  0
   15.1410   37.0045  144.8795 C   0  0  0  0  0  0  0  0  0  0  0  0
   16.3367   37.4929  145.3835 O   0  0  0  0  0  0  0  0  0  0  0  0
   16.5478   38.4023  145.0325 H   0  0  0  0  0  0  0  0  0  0  0  0
   19.0264   32.5695  143.2938 C   0  0  0  0  0  0  0  0  0  0  0  0
   18.1463   31.6187  142.7624 O   0  0  0  0  0  0  0  0  0  0  0  0
   17.2451   32.0240  142.7968 H   0  0  0  0  0  0  0  0  0  0  0  0
   17.0487   33.7746  138.6547 C   0  0  0  0  0  0  0  0  0  0  0  0
   15.7423   33.4895  138.9981 O   0  0  0  0  0  0  0  0  0  0  0  0
   15.7077   33.0723  139.8929 H   0  0  0  0  0  0  0  0  0  0  0  0
   15.1454   39.0123  140.3509 C   0  0  0  0  0  0  0  0  0  0  0  0
   15.7992   38.6034  141.5097 O   0  0  0  0  0  0  0  0  0  0  0  0
   15.5461   37.7075  141.7930 H   0  0  0  0  0  0  0  0  0  0  0  0
   18.3292   41.7528  137.2166 C   0  0  0  0  0  0  0  0  0  0  0  0
   19.3203   40.8163  137.3274 O   0  0  0  0  0  0  0  0  0  0  0  0
   19.1807   40.1005  136.6326 H   0  0  0  0  0  0  0  0  0  0  0  0
 27 28  1  0  0  0
 28 29  2  0  0  0
 28 25  1  0  0  0
 25 24  1  0  0  0
 24 23  1  0  0  0
 23 22  1  0  0  0
 22 16  1  0  0  0
 16 12  1  0  0  0
 12 13  1  0  0  0
 13 14  2  0  0  0
 13 11  1  0  0  0
 11 33  1  0  0  0
 33 34  1  0  0  0
 11  7  1  0  0  0
  7  8  1  0  0  0
  8  9  2  0  0  0
  8  6  1  0  0  0
  6 36  1  0  0  0
 36 37  1  0  0  0
  6  2  1  0  0  0
  2  3  1  0  0  0
  3  4  2  0  0  0
  3  1  1  0  0  0
  1 74  1  0  0  0
 74 75  1  0  0  0
  1 39  1  0  0  0
 39 40  1  0  0  0
 40 41  2  0  0  0
 40 43  1  0  0  0
 43 71  1  0  0  0
 71 72  1  0  0  0
 43 44  1  0  0  0
 44 45  1  0  0  0
 45 46  2  0  0  0
 45 48  1  0  0  0
 48 68  1  0  0  0
 68 69  1  0  0  0
 48 49  1  0  0  0
 49 50  1  0  0  0
 50 51  2  0  0  0
 50 53  1  0  0  0
 53 65  1  0  0  0
 65 66  1  0  0  0
 53 54  1  0  0  0
 54 55  1  0  0  0
 55 56  2  0  0  0
 55 58  1  0  0  0
 58 62  1  0  0  0
 62 63  1  0  0  0
 58 59  1  0  0  0
 59 60  1  0  0  0
 16 17  1  0  0  0
 17 18  1  0  0  0
 17 19  2  0  0  0
 27 30  1  0  0  0
 27 31  1  0  0  0
 29 32  1  0  0  0
 25 26  1  0  0  0
 12 15  1  0  0  0
 34 35  1  0  0  0
  7 10  1  0  0  0
 37 38  1  0  0  0
  2  5  1  0  0  0
 75 76  1  0  0  0
 39 42  1  0  0  0
 72 73  1  0  0  0
 44 47  1  0  0  0
 69 70  1  0  0  0
 49 52  1  0  0  0
 66 67  1  0  0  0
 54 57  1  0  0  0
 63 64  1  0  0  0
 60 61  1  0  0  0
 18 20  1  0  0  0
 18 21  1  0  0  0
M  END
> <minimizedAffinity>
-2.35122

> <CNNscore>
0.2642773986

> <CNNaffinity>
4.1079745293

> <CNN_VS>
1.0856448412

> <CNNaffinity_variance>
1.6954946518

$$$$
[H]N=C(N([H])[H])N([H])C([H])([H])C([H])([H])C([H])([H])[C@@]([H])(C(=O)N([H])[H])N([H])C(=O)[C@]([H])(N([H])C(=O)[C@@]([H])(N([H])C(=O)[C@]([H])(N([H])C(=O)[C@@]([H])(N([H])C(=O)[C@@]([H])(N([H])C(=O)[C@@]([H])(N([H])C(=O)C([H])(C([H])([H])O[H])C([H])([H])O[H])C([H])([H])O[H])C([H])([H])O[H])C([H])([H])O[H])C([H])([H])O[H])C([H])([H])O[H])C([H])([H])O[H]


 76 75  0  0  0  0  0  0  0  0999 V2000
    1.8706   33.7516  125.7821 C   0  0  0  0  0  0  0  0  0  0  0  0
    0.4956   33.3753  123.7074 N   0  0  0  0  0  0  0  0  0  0  0  0
    1.4304   32.9207  124.6647 C   0  0  0  0  0  0  0  0  0  0  0  0
    1.9280   31.7375  124.5819 O   0  0  0  0  0  0  0  0  0  0  0  0
    0.1236   34.3713  123.7755 H   0  0  0  0  0  0  0  0  0  0  0  0
   -0.0241   32.6293  122.5957 C   0  0  0  0  0  0  0  0  0  0  0  0
   -0.6260   34.2817  120.7328 N   0  0  0  0  0  0  0  0  0  0  0  0
    0.1850   33.2463  121.2729 C   0  0  0  0  0  0  0  0  0  0  0  0
    1.1337   32.8465  120.5639 O   0  0  0  0  0  0  0  0  0  0  0  0
   -1.4105   34.6408  121.3411 H   0  0  0  0  0  0  0  0  0  0  0  0
   -0.4593   34.8817  119.4396 C   0  0  0  0  0  0  0  0  0  0  0  0
   -2.1905   36.7021  118.9688 N   0  0  0  0  0  0  0  0  0  0  0  0
   -1.7029   35.3688  118.8567 C   0  0  0  0  0  0  0  0  0  0  0  0
   -2.4024   34.5506  118.2036 O   0  0  0  0  0  0  0  0  0  0  0  0
   -1.5958   37.3710  119.5035 H   0  0  0  0  0  0  0  0  0  0  0  0
   -3.4457   37.1117  118.3746 C   0  0  0  0  0  0  0  0  0  0  0  0
   -3.3765   38.3598  117.6045 C   0  0  0  0  0  0  0  0  0  0  0  0
   -2.2143   39.1596  117.6531 N   0  0  0  0  0  0  0  0  0  0  0  0
   -4.3293   38.7936  116.8637 O   0  0  0  0  0  0  0  0  0  0  0  0
   -2.2794   40.1819  117.5449 H   0  0  0  0  0  0  0  0  0  0  0  0
   -1.2964   38.7031  117.7974 H   0  0  0  0  0  0  0  0  0  0  0  0
   -4.5641   37.0133  119.3350 C   0  0  0  0  0  0  0  0  0  0  0  0
   -4.4314   37.6755  120.6618 C   0  0  0  0  0  0  0  0  0  0  0  0
   -4.0643   36.7729  121.7927 C   0  0  0  0  0  0  0  0  0  0  0  0
   -3.7823   37.5184  123.0218 N   0  0  0  0  0  0  0  0  0  0  0  0
   -4.5579   37.7525  123.6443 H   0  0  0  0  0  0  0  0  0  0  0  0
   -1.8145   38.9886  122.6859 N   0  0  0  0  0  0  0  0  0  0  0  0
   -2.4624   37.8878  123.3036 C   0  0  0  0  0  0  0  0  0  0  0  0
   -1.7602   37.2082  124.1736 N   0  0  0  0  0  0  0  0  0  0  0  0
   -0.8789   38.8823  122.2519 H   0  0  0  0  0  0  0  0  0  0  0  0
   -2.2789   39.9157  122.6667 H   0  0  0  0  0  0  0  0  0  0  0  0
   -0.7776   37.4465  124.4137 H   0  0  0  0  0  0  0  0  0  0  0  0
    0.4628   36.1228  119.5598 C   0  0  0  0  0  0  0  0  0  0  0  0
    0.9363   36.4687  118.2825 O   0  0  0  0  0  0  0  0  0  0  0  0
    1.6946   37.0806  118.4151 H   0  0  0  0  0  0  0  0  0  0  0  0
   -1.4186   32.1357  122.8151 C   0  0  0  0  0  0  0  0  0  0  0  0
   -2.1044   31.8547  121.6562 O   0  0  0  0  0  0  0  0  0  0  0  0
   -3.0605   32.0215  121.7552 H   0  0  0  0  0  0  0  0  0  0  0  0
    0.9816   33.5210  126.9288 N   0  0  0  0  0  0  0  0  0  0  0  0
    1.5984   33.5356  128.2225 C   0  0  0  0  0  0  0  0  0  0  0  0
    2.8441   33.7400  128.3180 O   0  0  0  0  0  0  0  0  0  0  0  0
   -0.0283   33.3620  126.7646 H   0  0  0  0  0  0  0  0  0  0  0  0
    0.8085   33.3249  129.4509 C   0  0  0  0  0  0  0  0  0  0  0  0
   -0.4087   34.0838  129.3138 N   0  0  0  0  0  0  0  0  0  0  0  0
   -0.5212   35.4609  129.0387 C   0  0  0  0  0  0  0  0  0  0  0  0
    0.5178   36.1481  128.8848 O   0  0  0  0  0  0  0  0  0  0  0  0
   -1.3116   33.5406  129.4351 H   0  0  0  0  0  0  0  0  0  0  0  0
   -1.8536   36.1209  128.9310 C   0  0  0  0  0  0  0  0  0  0  0  0
   -2.6262   36.1031  130.1361 N   0  0  0  0  0  0  0  0  0  0  0  0
   -4.0125   36.5440  130.0966 C   0  0  0  0  0  0  0  0  0  0  0  0
   -4.4815   36.9134  129.0041 O   0  0  0  0  0  0  0  0  0  0  0  0
   -2.2858   35.8032  131.0705 H   0  0  0  0  0  0  0  0  0  0  0  0
   -4.8745   36.5696  131.2994 C   0  0  0  0  0  0  0  0  0  0  0  0
   -4.7918   35.2377  131.9097 N   0  0  0  0  0  0  0  0  0  0  0  0
   -4.4155   35.0296  133.2562 C   0  0  0  0  0  0  0  0  0  0  0  0
   -4.1388   36.0088  133.9769 O   0  0  0  0  0  0  0  0  0  0  0  0
   -5.0460   34.4610  131.2359 H   0  0  0  0  0  0  0  0  0  0  0  0
   -4.3531   33.6666  133.8029 C   0  0  0  0  0  0  0  0  0  0  0  0
   -3.3720   33.6771  134.9825 C   0  0  0  0  0  0  0  0  0  0  0  0
   -4.0272   33.2468  136.1358 O   0  0  0  0  0  0  0  0  0  0  0  0
   -4.2687   32.3027  136.1247 H   0  0  0  0  0  0  0  0  0  0  0  0
   -3.8467   32.6867  132.7717 C   0  0  0  0  0  0  0  0  0  0  0  0
   -2.8663   33.2403  131.9625 O   0  0  0  0  0  0  0  0  0  0  0  0
   -2.0311   32.6952  131.9593 H   0  0  0  0  0  0  0  0  0  0  0  0
   -4.4947   37.6728  132.2210 C   0  0  0  0  0  0  0  0  0  0  0  0
   -3.6911   38.5631  131.4981 O   0  0  0  0  0  0  0  0  0  0  0  0
   -3.1740   38.0144  130.8583 H   0  0  0  0  0  0  0  0  0  0  0  0
   -1.6756   37.5081  128.3726 C   0  0  0  0  0  0  0  0  0  0  0  0
   -1.2729   37.4464  127.0536 O   0  0  0  0  0  0  0  0  0  0  0  0
   -0.3089   37.2373  127.0003 H   0  0  0  0  0  0  0  0  0  0  0  0
    0.3643   31.8459  129.4421 C   0  0  0  0  0  0  0  0  0  0  0  0
   -0.7073   31.6922  130.3170 O   0  0  0  0  0  0  0  0  0  0  0  0
   -0.4296   31.4706  131.2230 H   0  0  0  0  0  0  0  0  0  0  0  0
    1.7341   35.2548  125.4203 C   0  0  0  0  0  0  0  0  0  0  0  0
    0.4588   35.6391  125.7327 O   0  0  0  0  0  0  0  0  0  0  0  0
    0.4905   36.4874  126.2751 H   0  0  0  0  0  0  0  0  0  0  0  0
 27 28  1  0  0  0
 28 29  2  0  0  0
 28 25  1  0  0  0
 25 24  1  0  0  0
 24 23  1  0  0  0
 23 22  1  0  0  0
 22 16  1  0  0  0
 16 12  1  0  0  0
 12 13  1  0  0  0
 13 14  2  0  0  0
 13 11  1  0  0  0
 11 33  1  0  0  0
 33 34  1  0  0  0
 11  7  1  0  0  0
  7  8  1  0  0  0
  8  9  2  0  0  0
  8  6  1  0  0  0
  6 36  1  0  0  0
 36 37  1  0  0  0
  6  2  1  0  0  0
  2  3  1  0  0  0
  3  4  2  0  0  0
  3  1  1  0  0  0
  1 74  1  0  0  0
 74 75  1  0  0  0
  1 39  1  0  0  0
 39 40  1  0  0  0
 40 41  2  0  0  0
 40 43  1  0  0  0
 43 71  1  0  0  0
 71 72  1  0  0  0
 43 44  1  0  0  0
 44 45  1  0  0  0
 45 46  2  0  0  0
 45 48  1  0  0  0
 48 68  1  0  0  0
 68 69  1  0  0  0
 48 49  1  0  0  0
 49 50  1  0  0  0
 50 51  2  0  0  0
 50 53  1  0  0  0
 53 65  1  0  0  0
 65 66  1  0  0  0
 53 54  1  0  0  0
 54 55  1  0  0  0
 55 56  2  0  0  0
 55 58  1  0  0  0
 58 62  1  0  0  0
 62 63  1  0  0  0
 58 59  1  0  0  0
 59 60  1  0  0  0
 16 17  1  0  0  0
 17 18  1  0  0  0
 17 19  2  0  0  0
 27 30  1  0  0  0
 27 31  1  0  0  0
 29 32  1  0  0  0
 25 26  1  0  0  0
 12 15  1  0  0  0
 34 35  1  0  0  0
  7 10  1  0  0  0
 37 38  1  0  0  0
  2  5  1  0  0  0
 75 76  1  0  0  0
 39 42  1  0  0  0
 72 73  1  0  0  0
 44 47  1  0  0  0
 69 70  1  0  0  0
 49 52  1  0  0  0
 66 67  1  0  0  0
 54 57  1  0  0  0
 63 64  1  0  0  0
 60 61  1  0  0  0
 18 20  1  0  0  0
 18 21  1  0  0  0
M  END
> <minimizedAffinity>
-3.07464

> <CNNscore>
0.2568841875

> <CNNaffinity>
4.1407709122

> <CNN_VS>
1.0636985302

> <CNNaffinity_variance>
1.4677598476

$$$$
[H]N=C(N([H])[H])N([H])C([H])([H])C([H])([H])C([H])([H])[C@@]([H])(C(=O)N([H])[H])N([H])C(=O)[C@]([H])(N([H])C(=O)[C@@]([H])(N([H])C(=O)[C@]([H])(N([H])C(=O)[C@@]([H])(N([H])C(=O)[C@@]([H])(N([H])C(=O)[C@@]([H])(N([H])C(=O)C([H])(C([H])([H])O[H])C([H])([H])O[H])C([H])([H])O[H])C([H])([H])O[H])C([H])([H])O[H])C([H])([H])O[H])C([H])([H])O[H])C([H])([H])O[H]


 76 75  0  0  0  0  0  0  0  0999 V2000
    9.5832   48.0101  129.7568 C   0  0  0  0  0  0  0  0  0  0  0  0
    8.0950   49.9815  129.2710 N   0  0  0  0  0  0  0  0  0  0  0  0
    8.3392   48.5897  129.2572 C   0  0  0  0  0  0  0  0  0  0  0  0
    7.4549   47.7753  128.7997 O   0  0  0  0  0  0  0  0  0  0  0  0
    8.8558   50.6398  129.6216 H   0  0  0  0  0  0  0  0  0  0  0  0
    6.8987   50.6460  128.8354 C   0  0  0  0  0  0  0  0  0  0  0  0
    7.3719   52.5633  127.2036 N   0  0  0  0  0  0  0  0  0  0  0  0
    7.0594   52.0730  128.5011 C   0  0  0  0  0  0  0  0  0  0  0  0
    6.9148   52.9244  129.4048 O   0  0  0  0  0  0  0  0  0  0  0  0
    7.4666   51.8486  126.4326 H   0  0  0  0  0  0  0  0  0  0  0  0
    7.5578   53.9438  126.8571 C   0  0  0  0  0  0  0  0  0  0  0  0
    7.2216   54.5984  124.4094 N   0  0  0  0  0  0  0  0  0  0  0  0
    8.0277   54.1455  125.4925 C   0  0  0  0  0  0  0  0  0  0  0  0
    9.2387   53.9013  125.2490 O   0  0  0  0  0  0  0  0  0  0  0  0
    6.2237   54.8064  124.6281 H   0  0  0  0  0  0  0  0  0  0  0  0
    7.7545   54.7614  123.0732 C   0  0  0  0  0  0  0  0  0  0  0  0
    8.5031   56.0071  122.8637 C   0  0  0  0  0  0  0  0  0  0  0  0
    8.9038   56.3835  121.5635 N   0  0  0  0  0  0  0  0  0  0  0  0
    8.8325   56.8079  123.8097 O   0  0  0  0  0  0  0  0  0  0  0  0
    9.7657   56.9292  121.4206 H   0  0  0  0  0  0  0  0  0  0  0  0
    8.3178   56.1044  120.7571 H   0  0  0  0  0  0  0  0  0  0  0  0
    6.7501   54.4368  122.0394 C   0  0  0  0  0  0  0  0  0  0  0  0
    5.6143   53.5433  122.3975 C   0  0  0  0  0  0  0  0  0  0  0  0
    4.2767   54.2030  122.4587 C   0  0  0  0  0  0  0  0  0  0  0  0
    4.1070   54.9892  123.6831 N   0  0  0  0  0  0  0  0  0  0  0  0
    4.6671   55.8347  123.8067 H   0  0  0  0  0  0  0  0  0  0  0  0
    2.8364   55.3253  125.7852 N   0  0  0  0  0  0  0  0  0  0  0  0
    3.1864   54.5577  124.6445 C   0  0  0  0  0  0  0  0  0  0  0  0
    2.5998   53.3949  124.5189 N   0  0  0  0  0  0  0  0  0  0  0  0
    2.8570   54.9098  126.7350 H   0  0  0  0  0  0  0  0  0  0  0  0
    2.5537   56.3168  125.6725 H   0  0  0  0  0  0  0  0  0  0  0  0
    1.9103   53.0345  125.2078 H   0  0  0  0  0  0  0  0  0  0  0  0
    6.2001   54.6876  126.9482 C   0  0  0  0  0  0  0  0  0  0  0  0
    6.4032   56.0501  126.6697 O   0  0  0  0  0  0  0  0  0  0  0  0
    5.5988   56.5269  126.9740 H   0  0  0  0  0  0  0  0  0  0  0  0
    5.7148   50.3616  129.7036 C   0  0  0  0  0  0  0  0  0  0  0  0
    4.8940   49.3660  129.2267 O   0  0  0  0  0  0  0  0  0  0  0  0
    3.9626   49.5197  129.4728 H   0  0  0  0  0  0  0  0  0  0  0  0
    9.4429   46.5486  129.8082 N   0  0  0  0  0  0  0  0  0  0  0  0
   10.3475   45.7955  128.9902 C   0  0  0  0  0  0  0  0  0  0  0  0
   11.2014   46.4037  128.2806 O   0  0  0  0  0  0  0  0  0  0  0  0
    8.7176   46.1290  130.4164 H   0  0  0  0  0  0  0  0  0  0  0  0
   10.3102   44.3207  128.9634 C   0  0  0  0  0  0  0  0  0  0  0  0
    9.5734   43.8889  130.1241 N   0  0  0  0  0  0  0  0  0  0  0  0
    9.7887   42.7170  130.8757 C   0  0  0  0  0  0  0  0  0  0  0  0
   10.7090   41.9302  130.5452 O   0  0  0  0  0  0  0  0  0  0  0  0
    8.7864   44.5266  130.4391 H   0  0  0  0  0  0  0  0  0  0  0  0
    8.9397   42.3899  132.0567 C   0  0  0  0  0  0  0  0  0  0  0  0
    9.1227   43.2578  133.1804 N   0  0  0  0  0  0  0  0  0  0  0  0
    8.4927   44.5697  133.1734 C   0  0  0  0  0  0  0  0  0  0  0  0
    7.8036   44.8861  132.1861 O   0  0  0  0  0  0  0  0  0  0  0  0
    9.6836   43.0430  134.0278 H   0  0  0  0  0  0  0  0  0  0  0  0
    8.6434   45.5313  134.2883 C   0  0  0  0  0  0  0  0  0  0  0  0
   10.0809   45.6437  134.5609 N   0  0  0  0  0  0  0  0  0  0  0  0
   11.0611   45.6326  133.5426 C   0  0  0  0  0  0  0  0  0  0  0  0
   10.7102   45.5250  132.3508 O   0  0  0  0  0  0  0  0  0  0  0  0
   10.2967   45.7362  135.5937 H   0  0  0  0  0  0  0  0  0  0  0  0
   12.4851   45.7490  133.8876 C   0  0  0  0  0  0  0  0  0  0  0  0
   13.2574   46.0633  132.5995 C   0  0  0  0  0  0  0  0  0  0  0  0
   13.1643   44.9804  131.7259 O   0  0  0  0  0  0  0  0  0  0  0  0
   12.2718   44.8435  131.3591 H   0  0  0  0  0  0  0  0  0  0  0  0
   13.0170   44.4559  134.4575 C   0  0  0  0  0  0  0  0  0  0  0  0
   12.2566   43.3629  134.0707 O   0  0  0  0  0  0  0  0  0  0  0  0
   12.8101   42.6563  133.6359 H   0  0  0  0  0  0  0  0  0  0  0  0
    7.9910   46.8315  133.9809 C   0  0  0  0  0  0  0  0  0  0  0  0
    8.8482   47.8449  134.4273 O   0  0  0  0  0  0  0  0  0  0  0  0
    9.2977   47.4933  135.2348 H   0  0  0  0  0  0  0  0  0  0  0  0
    7.5012   42.2943  131.6215 C   0  0  0  0  0  0  0  0  0  0  0  0
    7.4028   41.5833  130.4423 O   0  0  0  0  0  0  0  0  0  0  0  0
    7.6581   42.1537  129.6773 H   0  0  0  0  0  0  0  0  0  0  0  0
    9.4315   43.9229  127.7575 C   0  0  0  0  0  0  0  0  0  0  0  0
    8.2178   43.4295  128.2276 O   0  0  0  0  0  0  0  0  0  0  0  0
    8.2295   42.4674  128.3736 H   0  0  0  0  0  0  0  0  0  0  0  0
    9.8448   48.4744  131.2145 C   0  0  0  0  0  0  0  0  0  0  0  0
   10.1459   49.8083  131.1739 O   0  0  0  0  0  0  0  0  0  0  0  0
    9.5877   50.2962  131.8559 H   0  0  0  0  0  0  0  0  0  0  0  0
 27 28  1  0  0  0
 28 29  2  0  0  0
 28 25  1  0  0  0
 25 24  1  0  0  0
 24 23  1  0  0  0
 23 22  1  0  0  0
 22 16  1  0  0  0
 16 12  1  0  0  0
 12 13  1  0  0  0
 13 14  2  0  0  0
 13 11  1  0  0  0
 11 33  1  0  0  0
 33 34  1  0  0  0
 11  7  1  0  0  0
  7  8  1  0  0  0
  8  9  2  0  0  0
  8  6  1  0  0  0
  6 36  1  0  0  0
 36 37  1  0  0  0
  6  2  1  0  0  0
  2  3  1  0  0  0
  3  4  2  0  0  0
  3  1  1  0  0  0
  1 74  1  0  0  0
 74 75  1  0  0  0
  1 39  1  0  0  0
 39 40  1  0  0  0
 40 41  2  0  0  0
 40 43  1  0  0  0
 43 71  1  0  0  0
 71 72  1  0  0  0
 43 44  1  0  0  0
 44 45  1  0  0  0
 45 46  2  0  0  0
 45 48  1  0  0  0
 48 68  1  0  0  0
 68 69  1  0  0  0
 48 49  1  0  0  0
 49 50  1  0  0  0
 50 51  2  0  0  0
 50 53  1  0  0  0
 53 65  1  0  0  0
 65 66  1  0  0  0
 53 54  1  0  0  0
 54 55  1  0  0  0
 55 56  2  0  0  0
 55 58  1  0  0  0
 58 62  1  0  0  0
 62 63  1  0  0  0
 58 59  1  0  0  0
 59 60  1  0  0  0
 16 17  1  0  0  0
 17 18  1  0  0  0
 17 19  2  0  0  0
 27 30  1  0  0  0
 27 31  1  0  0  0
 29 32  1  0  0  0
 25 26  1  0  0  0
 12 15  1  0  0  0
 34 35  1  0  0  0
  7 10  1  0  0  0
 37 38  1  0  0  0
  2  5  1  0  0  0
 75 76  1  0  0  0
 39 42  1  0  0  0
 72 73  1  0  0  0
 44 47  1  0  0  0
 69 70  1  0  0  0
 49 52  1  0  0  0
 66 67  1  0  0  0
 54 57  1  0  0  0
 63 64  1  0  0  0
 60 61  1  0  0  0
 18 20  1  0  0  0
 18 21  1  0  0  0
M  END
> <minimizedAffinity>
-2.78925

> <CNNscore>
0.2537766099

> <CNNaffinity>
6.6508049965

> <CNN_VS>
1.6878187656

> <CNNaffinity_variance>
0.4510262609

$$$$
[H]N=C(N([H])[H])N([H])C([H])([H])C([H])([H])C([H])([H])[C@@]([H])(C(=O)N([H])[H])N([H])C(=O)[C@]([H])(N([H])C(=O)[C@@]([H])(N([H])C(=O)[C@]([H])(N([H])C(=O)[C@@]([H])(N([H])C(=O)[C@@]([H])(N([H])C(=O)[C@@]([H])(N([H])C(=O)C([H])(C([H])([H])O[H])C([H])([H])O[H])C([H])([H])O[H])C([H])([H])O[H])C([H])([H])O[H])C([H])([H])O[H])C([H])([H])O[H])C([H])([H])O[H]


 76 75  0  0  0  0  0  0  0  0999 V2000
    6.7597   50.7727  128.6314 C   0  0  0  0  0  0  0  0  0  0  0  0
    8.6926   49.9198  130.0000 N   0  0  0  0  0  0  0  0  0  0  0  0
    7.7206   49.7335  128.9914 C   0  0  0  0  0  0  0  0  0  0  0  0
    7.6541   48.6237  128.3446 O   0  0  0  0  0  0  0  0  0  0  0  0
    8.7063   50.8341  130.5470 H   0  0  0  0  0  0  0  0  0  0  0  0
    9.6983   48.9782  130.4055 C   0  0  0  0  0  0  0  0  0  0  0  0
    9.2574   46.7456  129.2290 N   0  0  0  0  0  0  0  0  0  0  0  0
    9.2776   47.5651  130.3907 C   0  0  0  0  0  0  0  0  0  0  0  0
    8.9112   47.0334  131.4610 O   0  0  0  0  0  0  0  0  0  0  0  0
    9.5932   47.1837  128.3292 H   0  0  0  0  0  0  0  0  0  0  0  0
    8.8296   45.3762  129.1828 C   0  0  0  0  0  0  0  0  0  0  0  0
   10.1989   44.1954  130.9893 N   0  0  0  0  0  0  0  0  0  0  0  0
    9.8449   44.4315  129.6303 C   0  0  0  0  0  0  0  0  0  0  0  0
   10.4582   43.7720  128.7504 O   0  0  0  0  0  0  0  0  0  0  0  0
    9.6756   44.7410  131.7073 H   0  0  0  0  0  0  0  0  0  0  0  0
   11.2310   43.2500  131.3594 C   0  0  0  0  0  0  0  0  0  0  0  0
   10.7772   42.1666  132.2404 C   0  0  0  0  0  0  0  0  0  0  0  0
   11.3223   40.8710  132.1099 N   0  0  0  0  0  0  0  0  0  0  0  0
    9.8890   42.3156  133.1534 O   0  0  0  0  0  0  0  0  0  0  0  0
   10.7553   40.0411  132.3350 H   0  0  0  0  0  0  0  0  0  0  0  0
   12.3003   40.7681  131.7862 H   0  0  0  0  0  0  0  0  0  0  0  0
   12.4756   43.9312  131.7715 C   0  0  0  0  0  0  0  0  0  0  0  0
   12.3808   45.2638  132.4287 C   0  0  0  0  0  0  0  0  0  0  0  0
   12.2856   45.2367  133.9182 C   0  0  0  0  0  0  0  0  0  0  0  0
   10.9683   44.7892  134.3767 N   0  0  0  0  0  0  0  0  0  0  0  0
   10.8874   43.8737  134.8231 H   0  0  0  0  0  0  0  0  0  0  0  0
    9.9089   47.0306  134.3887 N   0  0  0  0  0  0  0  0  0  0  0  0
    9.8634   45.6268  134.1880 C   0  0  0  0  0  0  0  0  0  0  0  0
    8.7155   45.1266  133.8083 N   0  0  0  0  0  0  0  0  0  0  0  0
    9.2001   47.5091  134.9749 H   0  0  0  0  0  0  0  0  0  0  0  0
   10.6595   47.5910  133.9436 H   0  0  0  0  0  0  0  0  0  0  0  0
    7.8695   45.7105  133.6560 H   0  0  0  0  0  0  0  0  0  0  0  0
    7.6225   45.1787  130.1362 C   0  0  0  0  0  0  0  0  0  0  0  0
    6.6454   46.1465  129.8468 O   0  0  0  0  0  0  0  0  0  0  0  0
    6.0226   46.1600  130.6077 H   0  0  0  0  0  0  0  0  0  0  0  0
   10.4141   49.3793  131.6557 C   0  0  0  0  0  0  0  0  0  0  0  0
    9.6170   49.4042  132.7766 O   0  0  0  0  0  0  0  0  0  0  0  0
    9.9075   50.0880  133.4088 H   0  0  0  0  0  0  0  0  0  0  0  0
    7.3241   51.5920  127.5503 N   0  0  0  0  0  0  0  0  0  0  0  0
    7.2957   53.0112  127.7492 C   0  0  0  0  0  0  0  0  0  0  0  0
    6.8006   53.4826  128.8147 O   0  0  0  0  0  0  0  0  0  0  0  0
    7.7110   51.1273  126.7098 H   0  0  0  0  0  0  0  0  0  0  0  0
    7.8407   53.9379  126.7386 C   0  0  0  0  0  0  0  0  0  0  0  0
    6.9922   53.8534  125.5771 N   0  0  0  0  0  0  0  0  0  0  0  0
    7.3478   54.1471  124.2459 C   0  0  0  0  0  0  0  0  0  0  0  0
    8.5163   54.5246  123.9864 O   0  0  0  0  0  0  0  0  0  0  0  0
    5.9952   53.5363  125.7515 H   0  0  0  0  0  0  0  0  0  0  0  0
    6.3595   54.0222  123.1367 C   0  0  0  0  0  0  0  0  0  0  0  0
    5.0237   54.4024  123.4838 N   0  0  0  0  0  0  0  0  0  0  0  0
    4.8011   55.6686  124.1659 C   0  0  0  0  0  0  0  0  0  0  0  0
    5.7888   56.3844  124.4146 O   0  0  0  0  0  0  0  0  0  0  0  0
    4.1668   53.8455  123.2982 H   0  0  0  0  0  0  0  0  0  0  0  0
    3.4541   56.1285  124.5714 C   0  0  0  0  0  0  0  0  0  0  0  0
    3.0377   55.2838  125.6967 N   0  0  0  0  0  0  0  0  0  0  0  0
    2.4851   53.9939  125.5283 C   0  0  0  0  0  0  0  0  0  0  0  0
    2.3376   53.5320  124.3794 O   0  0  0  0  0  0  0  0  0  0  0  0
    3.1994   55.7439  126.6371 H   0  0  0  0  0  0  0  0  0  0  0  0
    2.0889   53.2016  126.7013 C   0  0  0  0  0  0  0  0  0  0  0  0
    1.5864   51.8405  126.2022 C   0  0  0  0  0  0  0  0  0  0  0  0
    0.7720   51.2608  127.1744 O   0  0  0  0  0  0  0  0  0  0  0  0
   -0.0787   51.7188  127.3024 H   0  0  0  0  0  0  0  0  0  0  0  0
    0.9697   53.8723  127.4612 C   0  0  0  0  0  0  0  0  0  0  0  0
   -0.2584   53.7016  126.8407 O   0  0  0  0  0  0  0  0  0  0  0  0
   -0.9368   53.3053  127.4550 H   0  0  0  0  0  0  0  0  0  0  0  0
    3.4430   57.5827  124.8810 C   0  0  0  0  0  0  0  0  0  0  0  0
    2.4047   58.1598  124.1395 O   0  0  0  0  0  0  0  0  0  0  0  0
    2.3533   57.6531  123.2919 H   0  0  0  0  0  0  0  0  0  0  0  0
    6.8782   54.7528  121.9264 C   0  0  0  0  0  0  0  0  0  0  0  0
    7.9622   54.0862  121.3915 O   0  0  0  0  0  0  0  0  0  0  0  0
    8.7735   54.2710  121.9240 H   0  0  0  0  0  0  0  0  0  0  0  0
    7.6295   55.3654  127.2888 C   0  0  0  0  0  0  0  0  0  0  0  0
    6.3403   55.7840  126.9725 O   0  0  0  0  0  0  0  0  0  0  0  0
    6.2893   56.2440  126.1164 H   0  0  0  0  0  0  0  0  0  0  0  0
    6.5306   51.7313  129.8304 C   0  0  0  0  0  0  0  0  0  0  0  0
    5.9110   51.0148  130.8176 O   0  0  0  0  0  0  0  0  0  0  0  0
    6.3949   51.1617  131.6888 H   0  0  0  0  0  0  0  0  0  0  0  0
 27 28  1  0  0  0
 28 29  2  0  0  0
 28 25  1  0  0  0
 25 24  1  0  0  0
 24 23  1  0  0  0
 23 22  1  0  0  0
 22 16  1  0  0  0
 16 12  1  0  0  0
 12 13  1  0  0  0
 13 14  2  0  0  0
 13 11  1  0  0  0
 11 33  1  0  0  0
 33 34  1  0  0  0
 11  7  1  0  0  0
  7  8  1  0  0  0
  8  9  2  0  0  0
  8  6  1  0  0  0
  6 36  1  0  0  0
 36 37  1  0  0  0
  6  2  1  0  0  0
  2  3  1  0  0  0
  3  4  2  0  0  0
  3  1  1  0  0  0
  1 74  1  0  0  0
 74 75  1  0  0  0
  1 39  1  0  0  0
 39 40  1  0  0  0
 40 41  2  0  0  0
 40 43  1  0  0  0
 43 71  1  0  0  0
 71 72  1  0  0  0
 43 44  1  0  0  0
 44 45  1  0  0  0
 45 46  2  0  0  0
 45 48  1  0  0  0
 48 68  1  0  0  0
 68 69  1  0  0  0
 48 49  1  0  0  0
 49 50  1  0  0  0
 50 51  2  0  0  0
 50 53  1  0  0  0
 53 65  1  0  0  0
 65 66  1  0  0  0
 53 54  1  0  0  0
 54 55  1  0  0  0
 55 56  2  0  0  0
 55 58  1  0  0  0
 58 62  1  0  0  0
 62 63  1  0  0  0
 58 59  1  0  0  0
 59 60  1  0  0  0
 16 17  1  0  0  0
 17 18  1  0  0  0
 17 19  2  0  0  0
 27 30  1  0  0  0
 27 31  1  0  0  0
 29 32  1  0  0  0
 25 26  1  0  0  0
 12 15  1  0  0  0
 34 35  1  0  0  0
  7 10  1  0  0  0
 37 38  1  0  0  0
  2  5  1  0  0  0
 75 76  1  0  0  0
 39 42  1  0  0  0
 72 73  1  0  0  0
 44 47  1  0  0  0
 69 70  1  0  0  0
 49 52  1  0  0  0
 66 67  1  0  0  0
 54 57  1  0  0  0
 63 64  1  0  0  0
 60 61  1  0  0  0
 18 20  1  0  0  0
 18 21  1  0  0  0
M  END
> <minimizedAffinity>
-4.50783

> <CNNscore>
0.2525862753

> <CNNaffinity>
6.5826134682

> <CNN_VS>
1.6626777649

> <CNNaffinity_variance>
0.4657780528

$$$$
[H]N=C(N([H])[H])N([H])C([H])([H])C([H])([H])C([H])([H])[C@@]([H])(C(=O)N([H])[H])N([H])C(=O)[C@]([H])(N([H])C(=O)[C@@]([H])(N([H])C(=O)[C@]([H])(N([H])C(=O)[C@@]([H])(N([H])C(=O)[C@@]([H])(N([H])C(=O)[C@@]([H])(N([H])C(=O)C([H])(C([H])([H])O[H])C([H])([H])O[H])C([H])([H])O[H])C([H])([H])O[H])C([H])([H])O[H])C([H])([H])O[H])C([H])([H])O[H])C([H])([H])O[H]


 76 75  0  0  0  0  0  0  0  0999 V2000
    6.7874   50.8845  128.9586 C   0  0  0  0  0  0  0  0  0  0  0  0
    7.1607   48.6301  130.0145 N   0  0  0  0  0  0  0  0  0  0  0  0
    7.0526   49.4511  128.8695 C   0  0  0  0  0  0  0  0  0  0  0  0
    7.1912   48.9523  127.6920 O   0  0  0  0  0  0  0  0  0  0  0  0
    7.0070   49.0581  130.9781 H   0  0  0  0  0  0  0  0  0  0  0  0
    7.4497   47.2235  130.0363 C   0  0  0  0  0  0  0  0  0  0  0  0
    9.1807   45.6305  129.0221 N   0  0  0  0  0  0  0  0  0  0  0  0
    8.8230   46.8586  129.6428 C   0  0  0  0  0  0  0  0  0  0  0  0
    9.7488   47.6699  129.8605 O   0  0  0  0  0  0  0  0  0  0  0  0
    8.3970   44.9555  128.8113 H   0  0  0  0  0  0  0  0  0  0  0  0
   10.5116   45.2408  128.6518 C   0  0  0  0  0  0  0  0  0  0  0  0
   11.0375   45.2370  131.1530 N   0  0  0  0  0  0  0  0  0  0  0  0
   11.4022   45.0495  129.7893 C   0  0  0  0  0  0  0  0  0  0  0  0
   12.5856   44.6913  129.5515 O   0  0  0  0  0  0  0  0  0  0  0  0
   10.0518   45.5235  131.3353 H   0  0  0  0  0  0  0  0  0  0  0  0
   11.9823   45.0427  132.2328 C   0  0  0  0  0  0  0  0  0  0  0  0
   12.1681   43.6429  132.6351 C   0  0  0  0  0  0  0  0  0  0  0  0
   12.8691   43.3329  133.8205 N   0  0  0  0  0  0  0  0  0  0  0  0
   11.7246   42.6439  131.9642 O   0  0  0  0  0  0  0  0  0  0  0  0
   13.4074   42.4578  133.8947 H   0  0  0  0  0  0  0  0  0  0  0  0
   12.8325   43.9971  134.6137 H   0  0  0  0  0  0  0  0  0  0  0  0
   11.7593   46.0012  133.3348 C   0  0  0  0  0  0  0  0  0  0  0  0
   10.4021   46.5866  133.5136 C   0  0  0  0  0  0  0  0  0  0  0  0
    9.4068   45.6995  134.1850 C   0  0  0  0  0  0  0  0  0  0  0  0
    8.3666   45.2420  133.2606 N   0  0  0  0  0  0  0  0  0  0  0  0
    7.5551   45.8410  133.0974 H   0  0  0  0  0  0  0  0  0  0  0  0
    8.8768   42.8168  133.3257 N   0  0  0  0  0  0  0  0  0  0  0  0
    8.5152   44.0006  132.6323 C   0  0  0  0  0  0  0  0  0  0  0  0
    8.3195   43.8875  131.3436 N   0  0  0  0  0  0  0  0  0  0  0  0
    9.6514   42.2159  132.9880 H   0  0  0  0  0  0  0  0  0  0  0  0
    8.3610   42.5435  134.1830 H   0  0  0  0  0  0  0  0  0  0  0  0
    8.4186   42.9863  130.8357 H   0  0  0  0  0  0  0  0  0  0  0  0
   10.4659   43.8745  127.9196 C   0  0  0  0  0  0  0  0  0  0  0  0
    9.4340   43.0937  128.4680 O   0  0  0  0  0  0  0  0  0  0  0  0
    9.5864   42.1689  128.1703 H   0  0  0  0  0  0  0  0  0  0  0  0
    6.3948   46.3930  129.3777 C   0  0  0  0  0  0  0  0  0  0  0  0
    5.1697   47.0115  129.2834 O   0  0  0  0  0  0  0  0  0  0  0  0
    4.4378   46.3684  129.3342 H   0  0  0  0  0  0  0  0  0  0  0  0
    7.4872   51.5691  127.8631 N   0  0  0  0  0  0  0  0  0  0  0  0
    7.2531   52.9782  127.7436 C   0  0  0  0  0  0  0  0  0  0  0  0
    6.4773   53.5538  128.5619 O   0  0  0  0  0  0  0  0  0  0  0  0
    8.1061   51.0244  127.2368 H   0  0  0  0  0  0  0  0  0  0  0  0
    7.9057   53.7770  126.6886 C   0  0  0  0  0  0  0  0  0  0  0  0
    7.0675   53.7091  125.5185 N   0  0  0  0  0  0  0  0  0  0  0  0
    7.4686   53.8795  124.1788 C   0  0  0  0  0  0  0  0  0  0  0  0
    8.6736   54.1154  123.9189 O   0  0  0  0  0  0  0  0  0  0  0  0
    6.0404   53.5098  125.6932 H   0  0  0  0  0  0  0  0  0  0  0  0
    6.4864   53.7895  123.0609 C   0  0  0  0  0  0  0  0  0  0  0  0
    5.1768   54.2728  123.3785 N   0  0  0  0  0  0  0  0  0  0  0  0
    5.0383   55.5523  124.0579 C   0  0  0  0  0  0  0  0  0  0  0  0
    6.0729   56.1888  124.3303 O   0  0  0  0  0  0  0  0  0  0  0  0
    4.2835   53.7845  123.1724 H   0  0  0  0  0  0  0  0  0  0  0  0
    3.7224   56.1158  124.4339 C   0  0  0  0  0  0  0  0  0  0  0  0
    3.2323   55.3285  125.5710 N   0  0  0  0  0  0  0  0  0  0  0  0
    2.5387   54.1063  125.4196 C   0  0  0  0  0  0  0  0  0  0  0  0
    2.3243   53.6571  124.2763 O   0  0  0  0  0  0  0  0  0  0  0  0
    3.4574   55.7733  126.5056 H   0  0  0  0  0  0  0  0  0  0  0  0
    2.0750   53.3692  126.6038 C   0  0  0  0  0  0  0  0  0  0  0  0
    1.9083   51.8967  126.2062 C   0  0  0  0  0  0  0  0  0  0  0  0
    0.7962   51.3628  126.8564 O   0  0  0  0  0  0  0  0  0  0  0  0
   -0.0546   51.7201  126.5430 H   0  0  0  0  0  0  0  0  0  0  0  0
    0.7395   53.8869  127.0816 C   0  0  0  0  0  0  0  0  0  0  0  0
    0.4933   53.5535  128.4048 O   0  0  0  0  0  0  0  0  0  0  0  0
    0.2837   54.3547  128.9604 H   0  0  0  0  0  0  0  0  0  0  0  0
    3.8112   57.5738  124.7118 C   0  0  0  0  0  0  0  0  0  0  0  0
    2.6089   58.1537  124.2885 O   0  0  0  0  0  0  0  0  0  0  0  0
    2.3140   57.6373  123.4984 H   0  0  0  0  0  0  0  0  0  0  0  0
    7.0686   54.4441  121.8360 C   0  0  0  0  0  0  0  0  0  0  0  0
    7.8767   55.5037  122.1964 O   0  0  0  0  0  0  0  0  0  0  0  0
    7.3255   56.2904  122.4273 H   0  0  0  0  0  0  0  0  0  0  0  0
    7.8404   55.2505  127.1460 C   0  0  0  0  0  0  0  0  0  0  0  0
    6.5475   55.7267  126.9484 O   0  0  0  0  0  0  0  0  0  0  0  0
    6.4198   56.1268  126.0705 H   0  0  0  0  0  0  0  0  0  0  0  0
    7.3736   51.4585  130.2761 C   0  0  0  0  0  0  0  0  0  0  0  0
    8.4588   50.6953  130.6106 O   0  0  0  0  0  0  0  0  0  0  0  0
    9.2389   51.2985  130.8163 H   0  0  0  0  0  0  0  0  0  0  0  0
 27 28  1  0  0  0
 28 29  2  0  0  0
 28 25  1  0  0  0
 25 24  1  0  0  0
 24 23  1  0  0  0
 23 22  1  0  0  0
 22 16  1  0  0  0
 16 12  1  0  0  0
 12 13  1  0  0  0
 13 14  2  0  0  0
 13 11  1  0  0  0
 11 33  1  0  0  0
 33 34  1  0  0  0
 11  7  1  0  0  0
  7  8  1  0  0  0
  8  9  2  0  0  0
  8  6  1  0  0  0
  6 36  1  0  0  0
 36 37  1  0  0  0
  6  2  1  0  0  0
  2  3  1  0  0  0
  3  4  2  0  0  0
  3  1  1  0  0  0
  1 74  1  0  0  0
 74 75  1  0  0  0
  1 39  1  0  0  0
 39 40  1  0  0  0
 40 41  2  0  0  0
 40 43  1  0  0  0
 43 71  1  0  0  0
 71 72  1  0  0  0
 43 44  1  0  0  0
 44 45  1  0  0  0
 45 46  2  0  0  0
 45 48  1  0  0  0
 48 68  1  0  0  0
 68 69  1  0  0  0
 48 49  1  0  0  0
 49 50  1  0  0  0
 50 51  2  0  0  0
 50 53  1  0  0  0
 53 65  1  0  0  0
 65 66  1  0  0  0
 53 54  1  0  0  0
 54 55  1  0  0  0
 55 56  2  0  0  0
 55 58  1  0  0  0
 58 62  1  0  0  0
 62 63  1  0  0  0
 58 59  1  0  0  0
 59 60  1  0  0  0
 16 17  1  0  0  0
 17 18  1  0  0  0
 17 19  2  0  0  0
 27 30  1  0  0  0
 27 31  1  0  0  0
 29 32  1  0  0  0
 25 26  1  0  0  0
 12 15  1  0  0  0
 34 35  1  0  0  0
  7 10  1  0  0  0
 37 38  1  0  0  0
  2  5  1  0  0  0
 75 76  1  0  0  0
 39 42  1  0  0  0
 72 73  1  0  0  0
 44 47  1  0  0  0
 69 70  1  0  0  0
 49 52  1  0  0  0
 66 67  1  0  0  0
 54 57  1  0  0  0
 63 64  1  0  0  0
 60 61  1  0  0  0
 18 20  1  0  0  0
 18 21  1  0  0  0
M  END
> <minimizedAffinity>
-5.56955

> <CNNscore>
0.2488203198

> <CNNaffinity>
6.8320913315

> <CNN_VS>
1.6999630928

> <CNNaffinity_variance>
0.3883734345

$$$$
[H]ON([H])C(=O)C([H])([H])N(C([H])([H])c1c([H])c([H])c([N+](=O)[O-])c([H])c1[H])S(=O)(=O)c1c([H])c([H])c(-c2c([H])c([H])c([H])c([H])c2[H])c([H])c1[H]


 33 35  0  0  0  0  0  0  0  0999 V2000
    7.2689   49.5502  130.1019 N   0  0  0  0  0  0  0  0  0  0  0  0
    8.7864   49.6448  130.7913 S   0  0  0  0  0  0  0  0  0  0  0  0
    9.8221   49.7994  129.7136 O   0  0  0  0  0  0  0  0  0  0  0  0
    8.8450   50.9463  131.5907 O   0  0  0  0  0  0  0  0  0  0  0  0
    9.3214   48.4082  131.8473 C   0  0  0  0  0  0  0  0  0  0  0  0
   10.4475   47.7005  131.4855 C   0  0  0  0  0  0  0  0  0  0  0  0
   10.9552   46.6783  132.2796 C   0  0  0  0  0  0  0  0  0  0  0  0
   10.3290   46.3493  133.4646 C   0  0  0  0  0  0  0  0  0  0  0  0
    9.2055   47.0723  133.8025 C   0  0  0  0  0  0  0  0  0  0  0  0
    8.7060   48.0694  133.0330 C   0  0  0  0  0  0  0  0  0  0  0  0
   10.8326   45.2810  134.3266 C   0  0  0  0  0  0  0  0  0  0  0  0
   10.2853   44.9535  135.5258 C   0  0  0  0  0  0  0  0  0  0  0  0
   10.8449   43.9249  136.2569 C   0  0  0  0  0  0  0  0  0  0  0  0
   11.9401   43.2119  135.8216 C   0  0  0  0  0  0  0  0  0  0  0  0
   12.4993   43.5466  134.5962 C   0  0  0  0  0  0  0  0  0  0  0  0
   11.9381   44.5756  133.8667 C   0  0  0  0  0  0  0  0  0  0  0  0
    7.3715   50.0753  128.7337 C   0  0  0  0  0  0  0  0  0  0  0  0
    6.8968   53.6466  127.6599 O   0  0  0  0  0  0  0  0  0  0  0  0
    7.2489   52.3224  127.6083 N   0  0  0  0  0  0  0  0  0  0  0  0
    7.0192   51.5019  128.7270 C   0  0  0  0  0  0  0  0  0  0  0  0
    6.4985   52.0049  129.7519 O   0  0  0  0  0  0  0  0  0  0  0  0
    5.9269   53.6729  127.4556 H   0  0  0  0  0  0  0  0  0  0  0  0
    7.6781   52.0407  126.7075 H   0  0  0  0  0  0  0  0  0  0  0  0
    6.6238   48.2703  130.1040 C   0  0  0  0  0  0  0  0  0  0  0  0
    7.5054   47.1167  129.8236 C   0  0  0  0  0  0  0  0  0  0  0  0
    8.4537   47.0820  128.8390 C   0  0  0  0  0  0  0  0  0  0  0  0
    9.2527   45.9939  128.6055 C   0  0  0  0  0  0  0  0  0  0  0  0
    9.1121   44.8746  129.3847 C   0  0  0  0  0  0  0  0  0  0  0  0
    8.1673   44.8626  130.3922 C   0  0  0  0  0  0  0  0  0  0  0  0
    7.3780   45.9726  130.6030 C   0  0  0  0  0  0  0  0  0  0  0  0
    9.9465   43.7170  129.1534 N   0  0  0  0  0  0  0  0  0  0  0  0
   10.9912   43.4399  129.9895 O   0  0  0  0  0  0  0  0  0  0  0  0
    9.7171   42.9724  128.1965 O   0  0  0  0  0  0  0  0  0  0  0  0
 18 19  1  0  0  0
 19 20  1  0  0  0
 20 21  2  0  0  0
 20 17  1  0  0  0
 17  1  1  0  0  0
  1 24  1  0  0  0
 24 25  1  0  0  0
 25 26  2  0  0  0
 26 27  1  0  0  0
 27 28  2  0  0  0
 28 29  1  0  0  0
 29 30  2  0  0  0
 28 31  1  0  0  0
 31 32  1  0  0  0
 31 33  2  0  0  0
  1  2  1  0  0  0
  2  3  2  0  0  0
  2  4  2  0  0  0
  2  5  1  0  0  0
  5  6  2  0  0  0
  6  7  1  0  0  0
  7  8  2  0  0  0
  8  9  1  0  0  0
  9 10  2  0  0  0
  8 11  1  0  0  0
 11 12  2  0  0  0
 12 13  1  0  0  0
 13 14  2  0  0  0
 14 15  1  0  0  0
 15 16  2  0  0  0
 30 25  1  0  0  0
 10  5  1  0  0  0
 16 11  1  0  0  0
 18 22  1  0  0  0
 19 23  1  0  0  0
M  CHG 1  31   1
M  CHG 1  32  -1
M  END
> <minimizedAffinity>
-2.90592

> <CNNscore>
0.6601018310

> <CNNaffinity>
7.6871919632

> <CNN_VS>
5.0743293762

> <CNNaffinity_variance>
0.5538479090

$$$$
[H]ON([H])C(=O)C([H])([H])N(C([H])([H])c1c([H])c([H])c([N+](=O)[O-])c([H])c1[H])S(=O)(=O)c1c([H])c([H])c(-c2c([H])c([H])c([H])c([H])c2[H])c([H])c1[H]


 33 35  0  0  0  0  0  0  0  0999 V2000
    8.1432   48.9279  129.5038 N   0  0  0  0  0  0  0  0  0  0  0  0
    9.3667   49.2492  130.5932 S   0  0  0  0  0  0  0  0  0  0  0  0
   10.5980   49.6914  129.8540 O   0  0  0  0  0  0  0  0  0  0  0  0
    8.9382   50.4635  131.4169 O   0  0  0  0  0  0  0  0  0  0  0  0
    9.8431   48.0499  131.7180 C   0  0  0  0  0  0  0  0  0  0  0  0
    9.0052   47.8037  132.7844 C   0  0  0  0  0  0  0  0  0  0  0  0
    9.3097   46.8489  133.7482 C   0  0  0  0  0  0  0  0  0  0  0  0
   10.4766   46.1186  133.6516 C   0  0  0  0  0  0  0  0  0  0  0  0
   11.2961   46.3845  132.5760 C   0  0  0  0  0  0  0  0  0  0  0  0
   11.0050   47.3135  131.6336 C   0  0  0  0  0  0  0  0  0  0  0  0
   10.8315   45.1060  134.6449 C   0  0  0  0  0  0  0  0  0  0  0  0
   11.6833   44.0756  134.4056 C   0  0  0  0  0  0  0  0  0  0  0  0
   11.9460   43.1766  135.4198 C   0  0  0  0  0  0  0  0  0  0  0  0
   11.3792   43.2790  136.6709 C   0  0  0  0  0  0  0  0  0  0  0  0
   10.5087   44.3321  136.9155 C   0  0  0  0  0  0  0  0  0  0  0  0
   10.2474   45.2299  135.8998 C   0  0  0  0  0  0  0  0  0  0  0  0
    7.7557   50.2030  128.8856 C   0  0  0  0  0  0  0  0  0  0  0  0
    4.0564   49.9909  129.5204 O   0  0  0  0  0  0  0  0  0  0  0  0
    5.3209   49.6216  129.1398 N   0  0  0  0  0  0  0  0  0  0  0  0
    6.3786   50.5387  129.2729 C   0  0  0  0  0  0  0  0  0  0  0  0
    6.1375   51.6800  129.7357 O   0  0  0  0  0  0  0  0  0  0  0  0
    4.0235   49.8565  130.5022 H   0  0  0  0  0  0  0  0  0  0  0  0
    5.3776   48.6563  128.7654 H   0  0  0  0  0  0  0  0  0  0  0  0
    8.3993   47.9377  128.4998 C   0  0  0  0  0  0  0  0  0  0  0  0
    8.7079   46.5844  129.0096 C   0  0  0  0  0  0  0  0  0  0  0  0
    7.8861   45.8510  129.8201 C   0  0  0  0  0  0  0  0  0  0  0  0
    8.2053   44.5993  130.2763 C   0  0  0  0  0  0  0  0  0  0  0  0
    9.4016   44.0349  129.9151 C   0  0  0  0  0  0  0  0  0  0  0  0
   10.2649   44.7376  129.0975 C   0  0  0  0  0  0  0  0  0  0  0  0
    9.9159   45.9952  128.6544 C   0  0  0  0  0  0  0  0  0  0  0  0
    9.7555   42.7149  130.3864 N   0  0  0  0  0  0  0  0  0  0  0  0
   10.8076   42.5454  131.2418 O   0  0  0  0  0  0  0  0  0  0  0  0
    9.1061   41.7329  130.0163 O   0  0  0  0  0  0  0  0  0  0  0  0
 18 19  1  0  0  0
 19 20  1  0  0  0
 20 21  2  0  0  0
 20 17  1  0  0  0
 17  1  1  0  0  0
  1 24  1  0  0  0
 24 25  1  0  0  0
 25 26  2  0  0  0
 26 27  1  0  0  0
 27 28  2  0  0  0
 28 29  1  0  0  0
 29 30  2  0  0  0
 28 31  1  0  0  0
 31 32  1  0  0  0
 31 33  2  0  0  0
  1  2  1  0  0  0
  2  3  2  0  0  0
  2  4  2  0  0  0
  2  5  1  0  0  0
  5  6  2  0  0  0
  6  7  1  0  0  0
  7  8  2  0  0  0
  8  9  1  0  0  0
  9 10  2  0  0  0
  8 11  1  0  0  0
 11 12  2  0  0  0
 12 13  1  0  0  0
 13 14  2  0  0  0
 14 15  1  0  0  0
 15 16  2  0  0  0
 30 25  1  0  0  0
 10  5  1  0  0  0
 16 11  1  0  0  0
 18 22  1  0  0  0
 19 23  1  0  0  0
M  CHG 1  31   1
M  CHG 1  32  -1
M  END
> <minimizedAffinity>
-0.35689

> <CNNscore>
0.6306554675

> <CNNaffinity>
7.7106575966

> <CNN_VS>
4.8627681732

> <CNNaffinity_variance>
0.5585011244

$$$$
[H]ON([H])C(=O)C([H])([H])N(C([H])([H])c1c([H])c([H])c([N+](=O)[O-])c([H])c1[H])S(=O)(=O)c1c([H])c([H])c(-c2c([H])c([H])c([H])c([H])c2[H])c([H])c1[H]


 33 35  0  0  0  0  0  0  0  0999 V2000
    7.3863   48.5590  128.4964 N   0  0  0  0  0  0  0  0  0  0  0  0
    6.5690   47.6951  129.6679 S   0  0  0  0  0  0  0  0  0  0  0  0
    5.5504   48.5798  130.3296 O   0  0  0  0  0  0  0  0  0  0  0  0
    5.7560   46.6145  128.9554 O   0  0  0  0  0  0  0  0  0  0  0  0
    7.4436   46.8998  130.9061 C   0  0  0  0  0  0  0  0  0  0  0  0
    8.2430   47.6714  131.7219 C   0  0  0  0  0  0  0  0  0  0  0  0
    8.9903   47.1131  132.7529 C   0  0  0  0  0  0  0  0  0  0  0  0
    8.9434   45.7529  132.9810 C   0  0  0  0  0  0  0  0  0  0  0  0
    8.1365   45.0049  132.1511 C   0  0  0  0  0  0  0  0  0  0  0  0
    7.4059   45.5430  131.1449 C   0  0  0  0  0  0  0  0  0  0  0  0
    9.7145   45.1288  134.0552 C   0  0  0  0  0  0  0  0  0  0  0  0
    9.5849   45.4528  135.3678 C   0  0  0  0  0  0  0  0  0  0  0  0
   10.3666   44.7975  136.2980 C   0  0  0  0  0  0  0  0  0  0  0  0
   11.2774   43.8239  135.9518 C   0  0  0  0  0  0  0  0  0  0  0  0
   11.4098   43.4929  134.6104 C   0  0  0  0  0  0  0  0  0  0  0  0
   10.6271   44.1495  133.6820 C   0  0  0  0  0  0  0  0  0  0  0  0
    8.0785   49.6678  129.1671 C   0  0  0  0  0  0  0  0  0  0  0  0
    6.5570   52.8456  127.8562 O   0  0  0  0  0  0  0  0  0  0  0  0
    7.3322   51.7159  127.9106 N   0  0  0  0  0  0  0  0  0  0  0  0
    7.2750   50.8923  129.0490 C   0  0  0  0  0  0  0  0  0  0  0  0
    6.5148   51.2150  129.9938 O   0  0  0  0  0  0  0  0  0  0  0  0
    5.6597   52.5396  127.5656 H   0  0  0  0  0  0  0  0  0  0  0  0
    7.9204   51.5739  127.0686 H   0  0  0  0  0  0  0  0  0  0  0  0
    8.2923   47.8335  127.6556 C   0  0  0  0  0  0  0  0  0  0  0  0
    9.1749   46.8750  128.3549 C   0  0  0  0  0  0  0  0  0  0  0  0
   10.1827   47.2251  129.2104 C   0  0  0  0  0  0  0  0  0  0  0  0
   10.9837   46.3094  129.8402 C   0  0  0  0  0  0  0  0  0  0  0  0
   10.7829   44.9716  129.6168 C   0  0  0  0  0  0  0  0  0  0  0  0
    9.7765   44.5694  128.7605 C   0  0  0  0  0  0  0  0  0  0  0  0
    8.9869   45.5143  128.1414 C   0  0  0  0  0  0  0  0  0  0  0  0
   11.6178   43.9906  130.2728 N   0  0  0  0  0  0  0  0  0  0  0  0
   12.9348   44.2586  130.5203 O   0  0  0  0  0  0  0  0  0  0  0  0
   11.1422   42.9038  130.6126 O   0  0  0  0  0  0  0  0  0  0  0  0
 18 19  1  0  0  0
 19 20  1  0  0  0
 20 21  2  0  0  0
 20 17  1  0  0  0
 17  1  1  0  0  0
  1 24  1  0  0  0
 24 25  1  0  0  0
 25 26  2  0  0  0
 26 27  1  0  0  0
 27 28  2  0  0  0
 28 29  1  0  0  0
 29 30  2  0  0  0
 28 31  1  0  0  0
 31 32  1  0  0  0
 31 33  2  0  0  0
  1  2  1  0  0  0
  2  3  2  0  0  0
  2  4  2  0  0  0
  2  5  1  0  0  0
  5  6  2  0  0  0
  6  7  1  0  0  0
  7  8  2  0  0  0
  8  9  1  0  0  0
  9 10  2  0  0  0
  8 11  1  0  0  0
 11 12  2  0  0  0
 12 13  1  0  0  0
 13 14  2  0  0  0
 14 15  1  0  0  0
 15 16  2  0  0  0
 30 25  1  0  0  0
 10  5  1  0  0  0
 16 11  1  0  0  0
 18 22  1  0  0  0
 19 23  1  0  0  0
M  CHG 1  31   1
M  CHG 1  32  -1
M  END
> <minimizedAffinity>
0.08575

> <CNNscore>
0.5532692671

> <CNNaffinity>
7.4975204468

> <CNN_VS>
4.1481475830

> <CNNaffinity_variance>
0.7088204622

$$$$
[H]ON([H])C(=O)C([H])([H])N(C([H])([H])c1c([H])c([H])c([N+](=O)[O-])c([H])c1[H])S(=O)(=O)c1c([H])c([H])c(-c2c([H])c([H])c([H])c([H])c2[H])c([H])c1[H]


 33 35  0  0  0  0  0  0  0  0999 V2000
    8.7603   50.0770  131.1595 N   0  0  0  0  0  0  0  0  0  0  0  0
    9.4579   49.1390  129.9676 S   0  0  0  0  0  0  0  0  0  0  0  0
    8.6257   49.2086  128.7183 O   0  0  0  0  0  0  0  0  0  0  0  0
   10.7906   49.7888  129.5958 O   0  0  0  0  0  0  0  0  0  0  0  0
    9.7964   47.4886  130.2707 C   0  0  0  0  0  0  0  0  0  0  0  0
    8.7286   46.6207  130.3518 C   0  0  0  0  0  0  0  0  0  0  0  0
    8.9065   45.2634  130.5956 C   0  0  0  0  0  0  0  0  0  0  0  0
   10.1777   44.7533  130.7634 C   0  0  0  0  0  0  0  0  0  0  0  0
   11.2271   45.6424  130.6774 C   0  0  0  0  0  0  0  0  0  0  0  0
   11.0603   46.9659  130.4401 C   0  0  0  0  0  0  0  0  0  0  0  0
   10.4054   43.3321  131.0211 C   0  0  0  0  0  0  0  0  0  0  0  0
   11.2866   42.8604  131.9407 C   0  0  0  0  0  0  0  0  0  0  0  0
   11.4200   41.4956  132.0995 C   0  0  0  0  0  0  0  0  0  0  0  0
   10.6947   40.5858  131.3623 C   0  0  0  0  0  0  0  0  0  0  0  0
    9.7942   41.0679  130.4225 C   0  0  0  0  0  0  0  0  0  0  0  0
    9.6624   42.4330  130.2654 C   0  0  0  0  0  0  0  0  0  0  0  0
    7.3292   49.7473  131.2005 C   0  0  0  0  0  0  0  0  0  0  0  0
    6.5105   52.0951  128.3810 O   0  0  0  0  0  0  0  0  0  0  0  0
    7.2012   51.5130  129.4126 N   0  0  0  0  0  0  0  0  0  0  0  0
    6.6387   50.4161  130.0891 C   0  0  0  0  0  0  0  0  0  0  0  0
    5.5107   49.9970  129.7331 O   0  0  0  0  0  0  0  0  0  0  0  0
    6.6965   51.5338  127.5851 H   0  0  0  0  0  0  0  0  0  0  0  0
    8.1140   51.9639  129.6089 H   0  0  0  0  0  0  0  0  0  0  0  0
    9.3321   50.0059  132.4718 C   0  0  0  0  0  0  0  0  0  0  0  0
    9.4791   48.6426  133.0252 C   0  0  0  0  0  0  0  0  0  0  0  0
    8.4388   47.8070  133.3249 C   0  0  0  0  0  0  0  0  0  0  0  0
    8.6116   46.5491  133.8393 C   0  0  0  0  0  0  0  0  0  0  0  0
    9.8804   46.0847  134.0728 C   0  0  0  0  0  0  0  0  0  0  0  0
   10.9631   46.8928  133.7856 C   0  0  0  0  0  0  0  0  0  0  0  0
   10.7574   48.1538  133.2688 C   0  0  0  0  0  0  0  0  0  0  0  0
   10.0824   44.7599  134.6148 N   0  0  0  0  0  0  0  0  0  0  0  0
   11.1201   44.5135  135.4693 O   0  0  0  0  0  0  0  0  0  0  0  0
    9.3155   43.8436  134.3065 O   0  0  0  0  0  0  0  0  0  0  0  0
 18 19  1  0  0  0
 19 20  1  0  0  0
 20 21  2  0  0  0
 20 17  1  0  0  0
 17  1  1  0  0  0
  1 24  1  0  0  0
 24 25  1  0  0  0
 25 26  2  0  0  0
 26 27  1  0  0  0
 27 28  2  0  0  0
 28 29  1  0  0  0
 29 30  2  0  0  0
 28 31  1  0  0  0
 31 32  1  0  0  0
 31 33  2  0  0  0
  1  2  1  0  0  0
  2  3  2  0  0  0
  2  4  2  0  0  0
  2  5  1  0  0  0
  5  6  2  0  0  0
  6  7  1  0  0  0
  7  8  2  0  0  0
  8  9  1  0  0  0
  9 10  2  0  0  0
  8 11  1  0  0  0
 11 12  2  0  0  0
 12 13  1  0  0  0
 13 14  2  0  0  0
 14 15  1  0  0  0
 15 16  2  0  0  0
 30 25  1  0  0  0
 10  5  1  0  0  0
 16 11  1  0  0  0
 18 22  1  0  0  0
 19 23  1  0  0  0
M  CHG 1  31   1
M  CHG 1  32  -1
M  END
> <minimizedAffinity>
0.61225

> <CNNscore>
0.5478833318

> <CNNaffinity>
7.7100806236

> <CNN_VS>
4.2242245674

> <CNNaffinity_variance>
1.1944944859

$$$$
[H]ON([H])C(=O)C([H])([H])N(C([H])([H])c1c([H])c([H])c([N+](=O)[O-])c([H])c1[H])S(=O)(=O)c1c([H])c([H])c(-c2c([H])c([H])c([H])c([H])c2[H])c([H])c1[H]


 33 35  0  0  0  0  0  0  0  0999 V2000
    7.8844   46.5826  129.2944 N   0  0  0  0  0  0  0  0  0  0  0  0
    7.6583   46.5311  130.9476 S   0  0  0  0  0  0  0  0  0  0  0  0
    6.4949   47.4039  131.3257 O   0  0  0  0  0  0  0  0  0  0  0  0
    7.2238   45.1100  131.3055 O   0  0  0  0  0  0  0  0  0  0  0  0
    8.9545   46.9157  131.9975 C   0  0  0  0  0  0  0  0  0  0  0  0
    9.6792   45.8707  132.5291 C   0  0  0  0  0  0  0  0  0  0  0  0
   10.7482   46.0864  133.3916 C   0  0  0  0  0  0  0  0  0  0  0  0
   11.1081   47.3734  133.7360 C   0  0  0  0  0  0  0  0  0  0  0  0
   10.3672   48.3995  133.1907 C   0  0  0  0  0  0  0  0  0  0  0  0
    9.3245   48.1957  132.3497 C   0  0  0  0  0  0  0  0  0  0  0  0
   12.2261   47.6407  134.6397 C   0  0  0  0  0  0  0  0  0  0  0  0
   13.3195   46.8424  134.7492 C   0  0  0  0  0  0  0  0  0  0  0  0
   14.3163   47.1930  135.6375 C   0  0  0  0  0  0  0  0  0  0  0  0
   14.2508   48.3232  136.4222 C   0  0  0  0  0  0  0  0  0  0  0  0
   13.1335   49.1389  136.3102 C   0  0  0  0  0  0  0  0  0  0  0  0
   12.1378   48.7864  135.4214 C   0  0  0  0  0  0  0  0  0  0  0  0
    8.7269   47.7496  128.9997 C   0  0  0  0  0  0  0  0  0  0  0  0
    7.1137   51.1218  129.3975 O   0  0  0  0  0  0  0  0  0  0  0  0
    7.9302   50.0479  129.6429 N   0  0  0  0  0  0  0  0  0  0  0  0
    7.8765   48.9298  128.7918 C   0  0  0  0  0  0  0  0  0  0  0  0
    7.0757   48.9405  127.8257 O   0  0  0  0  0  0  0  0  0  0  0  0
    7.5759   51.6546  128.7007 H   0  0  0  0  0  0  0  0  0  0  0  0
    8.5339   50.1663  130.4777 H   0  0  0  0  0  0  0  0  0  0  0  0
    8.4120   45.4078  128.6654 C   0  0  0  0  0  0  0  0  0  0  0  0
    9.2511   44.5499  129.5294 C   0  0  0  0  0  0  0  0  0  0  0  0
    8.7860   43.4995  130.2714 C   0  0  0  0  0  0  0  0  0  0  0  0
    9.5926   42.7261  131.0639 C   0  0  0  0  0  0  0  0  0  0  0  0
   10.9343   43.0002  131.1312 C   0  0  0  0  0  0  0  0  0  0  0  0
   11.4505   44.0515  130.3991 C   0  0  0  0  0  0  0  0  0  0  0  0
   10.6138   44.8118  129.6108 C   0  0  0  0  0  0  0  0  0  0  0  0
   11.8011   42.1947  131.9617 N   0  0  0  0  0  0  0  0  0  0  0  0
   11.6133   40.8441  132.0509 O   0  0  0  0  0  0  0  0  0  0  0  0
   12.7170   42.7262  132.5952 O   0  0  0  0  0  0  0  0  0  0  0  0
 18 19  1  0  0  0
 19 20  1  0  0  0
 20 21  2  0  0  0
 20 17  1  0  0  0
 17  1  1  0  0  0
  1 24  1  0  0  0
 24 25  1  0  0  0
 25 26  2  0  0  0
 26 27  1  0  0  0
 27 28  2  0  0  0
 28 29  1  0  0  0
 29 30  2  0  0  0
 28 31  1  0  0  0
 31 32  1  0  0  0
 31 33  2  0  0  0
  1  2  1  0  0  0
  2  3  2  0  0  0
  2  4  2  0  0  0
  2  5  1  0  0  0
  5  6  2  0  0  0
  6  7  1  0  0  0
  7  8  2  0  0  0
  8  9  1  0  0  0
  9 10  2  0  0  0
  8 11  1  0  0  0
 11 12  2  0  0  0
 12 13  1  0  0  0
 13 14  2  0  0  0
 14 15  1  0  0  0
 15 16  2  0  0  0
 30 25  1  0  0  0
 10  5  1  0  0  0
 16 11  1  0  0  0
 18 22  1  0  0  0
 19 23  1  0  0  0
M  CHG 1  31   1
M  CHG 1  32  -1
M  END
> <minimizedAffinity>
6.38899

> <CNNscore>
0.5404633284

> <CNNaffinity>
7.6612815857

> <CNN_VS>
4.1406416893

> <CNNaffinity_variance>
1.0742015839

$$$$
[H]ON([H])C(=O)C([H])([H])N(C([H])([H])c1c([H])c([H])c([N+](=O)[O-])c([H])c1[H])S(=O)(=O)c1c([H])c([H])c(-c2c([H])c([H])c([H])c([H])c2[H])c([H])c1[H]


 33 35  0  0  0  0  0  0  0  0999 V2000
    8.2576   49.7055  129.9030 N   0  0  0  0  0  0  0  0  0  0  0  0
    7.6504   48.2476  129.3622 S   0  0  0  0  0  0  0  0  0  0  0  0
    6.2035   48.1279  129.7500 O   0  0  0  0  0  0  0  0  0  0  0  0
    7.6516   48.2903  127.8342 O   0  0  0  0  0  0  0  0  0  0  0  0
    8.4250   46.7858  129.8022 C   0  0  0  0  0  0  0  0  0  0  0  0
    7.7999   45.9857  130.7345 C   0  0  0  0  0  0  0  0  0  0  0  0
    8.3542   44.7814  131.1535 C   0  0  0  0  0  0  0  0  0  0  0  0
    9.5609   44.3593  130.6338 C   0  0  0  0  0  0  0  0  0  0  0  0
   10.1643   45.1777  129.7037 C   0  0  0  0  0  0  0  0  0  0  0  0
    9.6293   46.3523  129.2914 C   0  0  0  0  0  0  0  0  0  0  0  0
   10.1754   43.0992  131.0492 C   0  0  0  0  0  0  0  0  0  0  0  0
   11.0710   42.9914  132.0646 C   0  0  0  0  0  0  0  0  0  0  0  0
   11.5881   41.7484  132.3702 C   0  0  0  0  0  0  0  0  0  0  0  0
   11.2338   40.6061  131.6870 C   0  0  0  0  0  0  0  0  0  0  0  0
   10.3186   40.7163  130.6493 C   0  0  0  0  0  0  0  0  0  0  0  0
    9.8029   41.9602  130.3454 C   0  0  0  0  0  0  0  0  0  0  0  0
    7.4317   50.7718  129.3202 C   0  0  0  0  0  0  0  0  0  0  0  0
    3.7867   49.8523  129.2944 O   0  0  0  0  0  0  0  0  0  0  0  0
    5.0795   50.0044  128.8633 N   0  0  0  0  0  0  0  0  0  0  0  0
    6.0309   50.5836  129.7218 C   0  0  0  0  0  0  0  0  0  0  0  0
    5.6709   50.9525  130.8659 O   0  0  0  0  0  0  0  0  0  0  0  0
    3.7809   49.0187  129.8312 H   0  0  0  0  0  0  0  0  0  0  0  0
    5.2379   49.6675  127.8956 H   0  0  0  0  0  0  0  0  0  0  0  0
    8.3823   49.8815  131.3199 C   0  0  0  0  0  0  0  0  0  0  0  0
    9.1448   48.8280  132.0238 C   0  0  0  0  0  0  0  0  0  0  0  0
   10.4195   48.4463  131.7085 C   0  0  0  0  0  0  0  0  0  0  0  0
   11.0961   47.4634  132.3815 C   0  0  0  0  0  0  0  0  0  0  0  0
   10.4849   46.8179  133.4254 C   0  0  0  0  0  0  0  0  0  0  0  0
    9.1973   47.1692  133.7811 C   0  0  0  0  0  0  0  0  0  0  0  0
    8.5423   48.1621  133.0849 C   0  0  0  0  0  0  0  0  0  0  0  0
   11.1832   45.7784  134.1477 N   0  0  0  0  0  0  0  0  0  0  0  0
   12.4933   45.5053  133.8713 O   0  0  0  0  0  0  0  0  0  0  0  0
   10.5961   45.1318  135.0195 O   0  0  0  0  0  0  0  0  0  0  0  0
 18 19  1  0  0  0
 19 20  1  0  0  0
 20 21  2  0  0  0
 20 17  1  0  0  0
 17  1  1  0  0  0
  1 24  1  0  0  0
 24 25  1  0  0  0
 25 26  2  0  0  0
 26 27  1  0  0  0
 27 28  2  0  0  0
 28 29  1  0  0  0
 29 30  2  0  0  0
 28 31  1  0  0  0
 31 32  1  0  0  0
 31 33  2  0  0  0
  1  2  1  0  0  0
  2  3  2  0  0  0
  2  4  2  0  0  0
  2  5  1  0  0  0
  5  6  2  0  0  0
  6  7  1  0  0  0
  7  8  2  0  0  0
  8  9  1  0  0  0
  9 10  2  0  0  0
  8 11  1  0  0  0
 11 12  2  0  0  0
 12 13  1  0  0  0
 13 14  2  0  0  0
 14 15  1  0  0  0
 15 16  2  0  0  0
 30 25  1  0  0  0
 10  5  1  0  0  0
 16 11  1  0  0  0
 18 22  1  0  0  0
 19 23  1  0  0  0
M  CHG 1  31   1
M  CHG 1  32  -1
M  END
> <minimizedAffinity>
-1.02264

> <CNNscore>
0.5125675201

> <CNNaffinity>
7.6041946411

> <CNN_VS>
3.8976631165

> <CNNaffinity_variance>
0.8198216558

$$$$
[H]ON([H])C(=O)C([H])([H])N(C([H])([H])c1c([H])c([H])c([N+](=O)[O-])c([H])c1[H])S(=O)(=O)c1c([H])c([H])c(-c2c([H])c([H])c([H])c([H])c2[H])c([H])c1[H]


 33 35  0  0  0  0  0  0  0  0999 V2000
    8.3159   50.0944  131.2477 N   0  0  0  0  0  0  0  0  0  0  0  0
    9.1821   49.2213  130.1189 S   0  0  0  0  0  0  0  0  0  0  0  0
    8.8650   49.7249  128.7390 O   0  0  0  0  0  0  0  0  0  0  0  0
   10.6617   49.5417  130.3303 O   0  0  0  0  0  0  0  0  0  0  0  0
    9.0604   47.5141  130.0856 C   0  0  0  0  0  0  0  0  0  0  0  0
   10.2208   46.7933  129.9015 C   0  0  0  0  0  0  0  0  0  0  0  0
   10.2194   45.4035  129.8599 C   0  0  0  0  0  0  0  0  0  0  0  0
    9.0350   44.7100  130.0048 C   0  0  0  0  0  0  0  0  0  0  0  0
    7.8900   45.4548  130.1874 C   0  0  0  0  0  0  0  0  0  0  0  0
    7.8850   46.8091  130.2290 C   0  0  0  0  0  0  0  0  0  0  0  0
    8.9929   43.2489  129.9668 C   0  0  0  0  0  0  0  0  0  0  0  0
    8.1983   42.4927  130.7678 C   0  0  0  0  0  0  0  0  0  0  0  0
    8.2409   41.1184  130.6453 C   0  0  0  0  0  0  0  0  0  0  0  0
    9.0583   40.4763  129.7415 C   0  0  0  0  0  0  0  0  0  0  0  0
    9.8702   41.2491  128.9230 C   0  0  0  0  0  0  0  0  0  0  0  0
    9.8260   42.6233  129.0472 C   0  0  0  0  0  0  0  0  0  0  0  0
    6.8907   49.8189  131.0208 C   0  0  0  0  0  0  0  0  0  0  0  0
    6.6361   52.3008  128.2088 O   0  0  0  0  0  0  0  0  0  0  0  0
    7.1064   51.6725  129.3332 N   0  0  0  0  0  0  0  0  0  0  0  0
    6.4356   50.5377  129.8228 C   0  0  0  0  0  0  0  0  0  0  0  0
    5.4155   50.1277  129.2179 O   0  0  0  0  0  0  0  0  0  0  0  0
    6.9954   51.7825  127.4437 H   0  0  0  0  0  0  0  0  0  0  0  0
    7.9491   52.1206  129.7386 H   0  0  0  0  0  0  0  0  0  0  0  0
    8.6532   49.9035  132.6275 C   0  0  0  0  0  0  0  0  0  0  0  0
    9.2884   48.6078  132.9504 C   0  0  0  0  0  0  0  0  0  0  0  0
    8.6144   47.4894  133.3566 C   0  0  0  0  0  0  0  0  0  0  0  0
    9.2361   46.3045  133.6500 C   0  0  0  0  0  0  0  0  0  0  0  0
   10.5995   46.2126  133.5377 C   0  0  0  0  0  0  0  0  0  0  0  0
   11.3235   47.3162  133.1307 C   0  0  0  0  0  0  0  0  0  0  0  0
   10.6697   48.4948  132.8425 C   0  0  0  0  0  0  0  0  0  0  0  0
   11.2731   44.9704  133.8427 N   0  0  0  0  0  0  0  0  0  0  0  0
   10.9291   44.2522  134.9532 O   0  0  0  0  0  0  0  0  0  0  0  0
   12.1643   44.5528  133.0983 O   0  0  0  0  0  0  0  0  0  0  0  0
 18 19  1  0  0  0
 19 20  1  0  0  0
 20 21  2  0  0  0
 20 17  1  0  0  0
 17  1  1  0  0  0
  1 24  1  0  0  0
 24 25  1  0  0  0
 25 26  2  0  0  0
 26 27  1  0  0  0
 27 28  2  0  0  0
 28 29  1  0  0  0
 29 30  2  0  0  0
 28 31  1  0  0  0
 31 32  1  0  0  0
 31 33  2  0  0  0
  1  2  1  0  0  0
  2  3  2  0  0  0
  2  4  2  0  0  0
  2  5  1  0  0  0
  5  6  2  0  0  0
  6  7  1  0  0  0
  7  8  2  0  0  0
  8  9  1  0  0  0
  9 10  2  0  0  0
  8 11  1  0  0  0
 11 12  2  0  0  0
 12 13  1  0  0  0
 13 14  2  0  0  0
 14 15  1  0  0  0
 15 16  2  0  0  0
 30 25  1  0  0  0
 10  5  1  0  0  0
 16 11  1  0  0  0
 18 22  1  0  0  0
 19 23  1  0  0  0
M  CHG 1  31   1
M  CHG 1  32  -1
M  END
> <minimizedAffinity>
3.09628

> <CNNscore>
0.5106678009

> <CNNaffinity>
7.6457886696

> <CNN_VS>
3.9044580460

> <CNNaffinity_variance>
1.3816211224

$$$$
[H]ON([H])C(=O)C([H])([H])N(C([H])([H])c1c([H])c([H])c([N+](=O)[O-])c([H])c1[H])S(=O)(=O)c1c([H])c([H])c(-c2c([H])c([H])c([H])c([H])c2[H])c([H])c1[H]


 33 35  0  0  0  0  0  0  0  0999 V2000
    9.8207   47.0138  128.3739 N   0  0  0  0  0  0  0  0  0  0  0  0
   10.2068   47.8526  129.7646 S   0  0  0  0  0  0  0  0  0  0  0  0
   11.4284   48.6941  129.5243 O   0  0  0  0  0  0  0  0  0  0  0  0
    9.0792   48.8513  130.0243 O   0  0  0  0  0  0  0  0  0  0  0  0
   10.4450   47.0050  131.2328 C   0  0  0  0  0  0  0  0  0  0  0  0
    9.4434   47.0676  132.1777 C   0  0  0  0  0  0  0  0  0  0  0  0
    9.5488   46.4122  133.3994 C   0  0  0  0  0  0  0  0  0  0  0  0
   10.6781   45.6747  133.6916 C   0  0  0  0  0  0  0  0  0  0  0  0
   11.6639   45.6287  132.7298 C   0  0  0  0  0  0  0  0  0  0  0  0
   11.5671   46.2651  131.5375 C   0  0  0  0  0  0  0  0  0  0  0  0
   10.8258   44.9715  134.9651 C   0  0  0  0  0  0  0  0  0  0  0  0
   10.1929   45.3363  136.1100 C   0  0  0  0  0  0  0  0  0  0  0  0
   10.4073   44.5977  137.2564 C   0  0  0  0  0  0  0  0  0  0  0  0
   11.2395   43.5007  137.2906 C   0  0  0  0  0  0  0  0  0  0  0  0
   11.8863   43.1278  136.1205 C   0  0  0  0  0  0  0  0  0  0  0  0
   11.6704   43.8679  134.9753 C   0  0  0  0  0  0  0  0  0  0  0  0
   10.7249   45.8590  128.2888 C   0  0  0  0  0  0  0  0  0  0  0  0
    9.9508   42.3048  129.2380 O   0  0  0  0  0  0  0  0  0  0  0  0
   10.6426   43.3894  128.7634 N   0  0  0  0  0  0  0  0  0  0  0  0
   10.0358   44.6579  128.7805 C   0  0  0  0  0  0  0  0  0  0  0  0
    8.8686   44.7663  129.2283 O   0  0  0  0  0  0  0  0  0  0  0  0
   10.0659   42.3250  130.2226 H   0  0  0  0  0  0  0  0  0  0  0  0
   11.5910   43.1578  128.4140 H   0  0  0  0  0  0  0  0  0  0  0  0
    8.4580   46.6006  128.2115 C   0  0  0  0  0  0  0  0  0  0  0  0
    7.4422   47.6078  128.5863 C   0  0  0  0  0  0  0  0  0  0  0  0
    7.6229   48.9613  128.5125 C   0  0  0  0  0  0  0  0  0  0  0  0
    6.6594   49.8670  128.8706 C   0  0  0  0  0  0  0  0  0  0  0  0
    5.4476   49.4169  129.3278 C   0  0  0  0  0  0  0  0  0  0  0  0
    5.2185   48.0580  129.4197 C   0  0  0  0  0  0  0  0  0  0  0  0
    6.2073   47.1712  129.0520 C   0  0  0  0  0  0  0  0  0  0  0  0
    4.4187   50.3577  129.7100 N   0  0  0  0  0  0  0  0  0  0  0  0
    4.5270   51.0653  130.8740 O   0  0  0  0  0  0  0  0  0  0  0  0
    3.4354   50.5254  128.9834 O   0  0  0  0  0  0  0  0  0  0  0  0
 18 19  1  0  0  0
 19 20  1  0  0  0
 20 21  2  0  0  0
 20 17  1  0  0  0
 17  1  1  0  0  0
  1 24  1  0  0  0
 24 25  1  0  0  0
 25 26  2  0  0  0
 26 27  1  0  0  0
 27 28  2  0  0  0
 28 29  1  0  0  0
 29 30  2  0  0  0
 28 31  1  0  0  0
 31 32  1  0  0  0
 31 33  2  0  0  0
  1  2  1  0  0  0
  2  3  2  0  0  0
  2  4  2  0  0  0
  2  5  1  0  0  0
  5  6  2  0  0  0
  6  7  1  0  0  0
  7  8  2  0  0  0
  8  9  1  0  0  0
  9 10  2  0  0  0
  8 11  1  0  0  0
 11 12  2  0  0  0
 12 13  1  0  0  0
 13 14  2  0  0  0
 14 15  1  0  0  0
 15 16  2  0  0  0
 30 25  1  0  0  0
 10  5  1  0  0  0
 16 11  1  0  0  0
 18 22  1  0  0  0
 19 23  1  0  0  0
M  CHG 1  31   1
M  CHG 1  32  -1
M  END
> <minimizedAffinity>
9.16422

> <CNNscore>
0.5058743954

> <CNNaffinity>
7.4799737930

> <CNN_VS>
3.7839272022

> <CNNaffinity_variance>
2.3118109703

$$$$
[H]ON([H])C(=O)C([H])([H])N(C([H])([H])c1c([H])c([H])c([N+](=O)[O-])c([H])c1[H])S(=O)(=O)c1c([H])c([H])c(-c2c([H])c([H])c([H])c([H])c2[H])c([H])c1[H]


 33 35  0  0  0  0  0  0  0  0999 V2000
    7.3520   50.0814  129.0468 N   0  0  0  0  0  0  0  0  0  0  0  0
    6.8747   48.5080  128.7578 S   0  0  0  0  0  0  0  0  0  0  0  0
    5.4333   48.3378  129.1469 O   0  0  0  0  0  0  0  0  0  0  0  0
    6.9079   48.2907  127.2451 O   0  0  0  0  0  0  0  0  0  0  0  0
    7.7522   47.2106  129.4486 C   0  0  0  0  0  0  0  0  0  0  0  0
    7.1285   46.4646  130.4255 C   0  0  0  0  0  0  0  0  0  0  0  0
    7.7630   45.3929  131.0438 C   0  0  0  0  0  0  0  0  0  0  0  0
    9.0508   45.0521  130.6833 C   0  0  0  0  0  0  0  0  0  0  0  0
    9.6509   45.8141  129.7043 C   0  0  0  0  0  0  0  0  0  0  0  0
    9.0380   46.8594  129.0982 C   0  0  0  0  0  0  0  0  0  0  0  0
    9.7511   43.9320  131.3102 C   0  0  0  0  0  0  0  0  0  0  0  0
    9.2212   43.1638  132.2970 C   0  0  0  0  0  0  0  0  0  0  0  0
    9.9747   42.1304  132.8167 C   0  0  0  0  0  0  0  0  0  0  0  0
   11.2475   41.8422  132.3760 C   0  0  0  0  0  0  0  0  0  0  0  0
   11.7890   42.6273  131.3675 C   0  0  0  0  0  0  0  0  0  0  0  0
   11.0337   43.6601  130.8494 C   0  0  0  0  0  0  0  0  0  0  0  0
    6.3936   50.9655  128.3698 C   0  0  0  0  0  0  0  0  0  0  0  0
    7.7942   54.2790  127.2783 O   0  0  0  0  0  0  0  0  0  0  0  0
    7.3295   52.9909  127.2069 N   0  0  0  0  0  0  0  0  0  0  0  0
    6.9037   52.3435  128.3803 C   0  0  0  0  0  0  0  0  0  0  0  0
    6.9632   52.9621  129.4705 O   0  0  0  0  0  0  0  0  0  0  0  0
    6.9865   54.8542  127.2792 H   0  0  0  0  0  0  0  0  0  0  0  0
    7.3438   52.5959  126.2482 H   0  0  0  0  0  0  0  0  0  0  0  0
    7.5240   50.4764  130.4137 C   0  0  0  0  0  0  0  0  0  0  0  0
    8.3975   49.5980  131.2213 C   0  0  0  0  0  0  0  0  0  0  0  0
    7.9956   48.9065  132.3305 C   0  0  0  0  0  0  0  0  0  0  0  0
    8.8335   48.1024  133.0571 C   0  0  0  0  0  0  0  0  0  0  0  0
   10.1426   47.9695  132.6716 C   0  0  0  0  0  0  0  0  0  0  0  0
   10.5948   48.6486  131.5572 C   0  0  0  0  0  0  0  0  0  0  0  0
    9.7279   49.4504  130.8463 C   0  0  0  0  0  0  0  0  0  0  0  0
   11.0415   47.1251  133.4258 N   0  0  0  0  0  0  0  0  0  0  0  0
   11.9241   46.3052  132.7806 O   0  0  0  0  0  0  0  0  0  0  0  0
   11.0146   47.1420  134.6594 O   0  0  0  0  0  0  0  0  0  0  0  0
 18 19  1  0  0  0
 19 20  1  0  0  0
 20 21  2  0  0  0
 20 17  1  0  0  0
 17  1  1  0  0  0
  1 24  1  0  0  0
 24 25  1  0  0  0
 25 26  2  0  0  0
 26 27  1  0  0  0
 27 28  2  0  0  0
 28 29  1  0  0  0
 29 30  2  0  0  0
 28 31  1  0  0  0
 31 32  1  0  0  0
 31 33  2  0  0  0
  1  2  1  0  0  0
  2  3  2  0  0  0
  2  4  2  0  0  0
  2  5  1  0  0  0
  5  6  2  0  0  0
  6  7  1  0  0  0
  7  8  2  0  0  0
  8  9  1  0  0  0
  9 10  2  0  0  0
  8 11  1  0  0  0
 11 12  2  0  0  0
 12 13  1  0  0  0
 13 14  2  0  0  0
 14 15  1  0  0  0
 15 16  2  0  0  0
 30 25  1  0  0  0
 10  5  1  0  0  0
 16 11  1  0  0  0
 18 22  1  0  0  0
 19 23  1  0  0  0
M  CHG 1  31   1
M  CHG 1  32  -1
M  END
> <minimizedAffinity>
-2.69303

> <CNNscore>
0.4853528142

> <CNNaffinity>
7.3906264305

> <CNN_VS>
3.5870614052

> <CNNaffinity_variance>
0.6730567217

$$$$
[H]c1nc(C([H])([H])N2C([H])([H])C([H])([H])C3(C(=O)N(c4c([H])c([H])c(C#N)c([H])c4[H])C(=O)N3c3nc([H])n([H])c(=O)c3[H])C([H])([H])C2([H])[H])c(C([H])([H])[H])c([H])c1[H]


 36 40  0  0  0  0  0  0  0  0999 V2000
    9.0114   49.0323  131.4614 N   0  0  0  0  0  0  0  0  0  0  0  0
    8.6801   48.9078  132.8877 C   0  0  0  0  0  0  0  0  0  0  0  0
    9.7574   48.2102  133.6494 C   0  0  0  0  0  0  0  0  0  0  0  0
   10.5391   47.2163  132.8265 C   0  0  0  0  0  0  0  0  0  0  0  0
   11.0550   47.7982  131.5239 C   0  0  0  0  0  0  0  0  0  0  0  0
   10.4620   49.1862  131.4162 C   0  0  0  0  0  0  0  0  0  0  0  0
   11.6741   46.7437  133.5845 N   0  0  0  0  0  0  0  0  0  0  0  0
   11.9039   45.4067  133.1302 C   0  0  0  0  0  0  0  0  0  0  0  0
   12.9983   44.7683  133.2860 O   0  0  0  0  0  0  0  0  0  0  0  0
   10.7333   44.9045  132.4841 N   0  0  0  0  0  0  0  0  0  0  0  0
    9.7852   45.9751  132.5586 C   0  0  0  0  0  0  0  0  0  0  0  0
    8.5493   45.8587  132.4192 O   0  0  0  0  0  0  0  0  0  0  0  0
   12.4454   47.4095  134.5826 C   0  0  0  0  0  0  0  0  0  0  0  0
   13.6789   46.9144  134.9810 C   0  0  0  0  0  0  0  0  0  0  0  0
   14.4187   47.5657  135.9474 C   0  0  0  0  0  0  0  0  0  0  0  0
   15.5526   47.1303  136.3283 O   0  0  0  0  0  0  0  0  0  0  0  0
   13.9740   48.7020  136.5390 N   0  0  0  0  0  0  0  0  0  0  0  0
   12.7757   49.1613  136.1355 C   0  0  0  0  0  0  0  0  0  0  0  0
   12.0399   48.5386  135.1933 N   0  0  0  0  0  0  0  0  0  0  0  0
   14.5350   49.2051  137.2780 H   0  0  0  0  0  0  0  0  0  0  0  0
   10.5654   43.6194  131.9009 C   0  0  0  0  0  0  0  0  0  0  0  0
   11.1207   42.4855  132.4168 C   0  0  0  0  0  0  0  0  0  0  0  0
   10.9201   41.2637  131.8024 C   0  0  0  0  0  0  0  0  0  0  0  0
   10.1489   41.1560  130.6445 C   0  0  0  0  0  0  0  0  0  0  0  0
    9.5917   42.2972  130.1281 C   0  0  0  0  0  0  0  0  0  0  0  0
    9.7948   43.5010  130.7414 C   0  0  0  0  0  0  0  0  0  0  0  0
    9.9484   39.8745  130.0153 C   0  0  0  0  0  0  0  0  0  0  0  0
    9.7727   38.8562  129.5098 N   0  0  0  0  0  0  0  0  0  0  0  0
    8.3502   50.2135  130.9523 C   0  0  0  0  0  0  0  0  0  0  0  0
    7.9965   48.0561  129.1112 C   0  0  0  0  0  0  0  0  0  0  0  0
    6.8568   48.9369  129.4309 C   0  0  0  0  0  0  0  0  0  0  0  0
    5.6300   48.7357  128.8430 C   0  0  0  0  0  0  0  0  0  0  0  0
    4.5446   49.5590  129.1358 C   0  0  0  0  0  0  0  0  0  0  0  0
    4.7759   50.5673  130.0342 C   0  0  0  0  0  0  0  0  0  0  0  0
    5.9833   50.7423  130.5939 N   0  0  0  0  0  0  0  0  0  0  0  0
    7.0417   49.9655  130.3297 C   0  0  0  0  0  0  0  0  0  0  0  0
 30 31  1  0  0  0
 31 32  2  0  0  0
 32 33  1  0  0  0
 33 34  2  0  0  0
 34 35  1  0  0  0
 35 36  2  0  0  0
 36 29  1  0  0  0
 29  1  1  0  0  0
  1  2  1  0  0  0
  2  3  1  0  0  0
  3  4  1  0  0  0
  4  5  1  0  0  0
  5  6  1  0  0  0
  4  7  1  0  0  0
  7  8  1  0  0  0
  8  9  2  0  0  0
  8 10  1  0  0  0
 10 11  1  0  0  0
 11 12  2  0  0  0
 10 21  1  0  0  0
 21 22  2  0  0  0
 22 23  1  0  0  0
 23 24  2  0  0  0
 24 25  1  0  0  0
 25 26  2  0  0  0
 24 27  1  0  0  0
 27 28  3  0  0  0
  7 13  1  0  0  0
 13 14  2  0  0  0
 14 15  1  0  0  0
 15 16  2  0  0  0
 15 17  1  0  0  0
 17 18  1  0  0  0
 18 19  2  0  0  0
 36 31  1  0  0  0
  6  1  1  0  0  0
 26 21  1  0  0  0
 19 13  1  0  0  0
 11  4  1  0  0  0
 17 20  1  0  0  0
M  END
> <minimizedAffinity>
17.77635

> <CNNscore>
0.4617986977

> <CNNaffinity>
7.6945753098

> <CNN_VS>
3.5533449650

> <CNNaffinity_variance>
0.8993778229

$$$$
[H]c1nc(C([H])([H])N2C([H])([H])C([H])([H])C3(C(=O)N(c4c([H])c([H])c(C#N)c([H])c4[H])C(=O)N3c3nc([H])n([H])c(=O)c3[H])C([H])([H])C2([H])[H])c(C([H])([H])[H])c([H])c1[H]


 36 40  0  0  0  0  0  0  0  0999 V2000
    8.7038   47.6048  129.6230 N   0  0  0  0  0  0  0  0  0  0  0  0
    9.7128   46.8035  128.9165 C   0  0  0  0  0  0  0  0  0  0  0  0
   10.1263   45.6076  129.7079 C   0  0  0  0  0  0  0  0  0  0  0  0
   10.0291   45.8021  131.2007 C   0  0  0  0  0  0  0  0  0  0  0  0
    8.6790   46.3332  131.6443 C   0  0  0  0  0  0  0  0  0  0  0  0
    7.9090   46.6419  130.3788 C   0  0  0  0  0  0  0  0  0  0  0  0
   10.2550   44.5426  131.8707 N   0  0  0  0  0  0  0  0  0  0  0  0
   10.8511   44.8820  133.1261 C   0  0  0  0  0  0  0  0  0  0  0  0
   10.8879   44.1090  134.1414 O   0  0  0  0  0  0  0  0  0  0  0  0
   11.3916   46.2027  133.0668 N   0  0  0  0  0  0  0  0  0  0  0  0
   11.1066   46.6566  131.7389 C   0  0  0  0  0  0  0  0  0  0  0  0
   11.6772   47.6048  131.1597 O   0  0  0  0  0  0  0  0  0  0  0  0
    9.9708   43.2143  131.4356 C   0  0  0  0  0  0  0  0  0  0  0  0
    8.6837   42.8395  131.0776 C   0  0  0  0  0  0  0  0  0  0  0  0
    8.4180   41.5517  130.6573 C   0  0  0  0  0  0  0  0  0  0  0  0
    7.2455   41.1854  130.3237 O   0  0  0  0  0  0  0  0  0  0  0  0
    9.3934   40.6129  130.5790 N   0  0  0  0  0  0  0  0  0  0  0  0
   10.6322   41.0012  130.9315 C   0  0  0  0  0  0  0  0  0  0  0  0
   10.9098   42.2541  131.3440 N   0  0  0  0  0  0  0  0  0  0  0  0
    9.1970   39.6268  130.2578 H   0  0  0  0  0  0  0  0  0  0  0  0
   12.0628   46.8976  134.1091 C   0  0  0  0  0  0  0  0  0  0  0  0
   11.4947   47.9170  134.8152 C   0  0  0  0  0  0  0  0  0  0  0  0
   12.2004   48.5541  135.8185 C   0  0  0  0  0  0  0  0  0  0  0  0
   13.5053   48.1752  136.1357 C   0  0  0  0  0  0  0  0  0  0  0  0
   14.0740   47.1503  135.4246 C   0  0  0  0  0  0  0  0  0  0  0  0
   13.3697   46.5257  134.4343 C   0  0  0  0  0  0  0  0  0  0  0  0
   14.2284   48.8490  137.1853 C   0  0  0  0  0  0  0  0  0  0  0  0
   14.7919   49.3957  138.0260 N   0  0  0  0  0  0  0  0  0  0  0  0
    7.8947   48.2773  128.6308 C   0  0  0  0  0  0  0  0  0  0  0  0
    8.4100   50.3791  130.4979 C   0  0  0  0  0  0  0  0  0  0  0  0
    7.0221   50.0907  130.0884 C   0  0  0  0  0  0  0  0  0  0  0  0
    5.9745   50.8164  130.6051 C   0  0  0  0  0  0  0  0  0  0  0  0
    4.6588   50.5557  130.2273 C   0  0  0  0  0  0  0  0  0  0  0  0
    4.4796   49.5441  129.3208 C   0  0  0  0  0  0  0  0  0  0  0  0
    5.5196   48.8506  128.8317 N   0  0  0  0  0  0  0  0  0  0  0  0
    6.7924   49.0813  129.1783 C   0  0  0  0  0  0  0  0  0  0  0  0
 30 31  1  0  0  0
 31 32  2  0  0  0
 32 33  1  0  0  0
 33 34  2  0  0  0
 34 35  1  0  0  0
 35 36  2  0  0  0
 36 29  1  0  0  0
 29  1  1  0  0  0
  1  2  1  0  0  0
  2  3  1  0  0  0
  3  4  1  0  0  0
  4  5  1  0  0  0
  5  6  1  0  0  0
  4  7  1  0  0  0
  7  8  1  0  0  0
  8  9  2  0  0  0
  8 10  1  0  0  0
 10 11  1  0  0  0
 11 12  2  0  0  0
 10 21  1  0  0  0
 21 22  2  0  0  0
 22 23  1  0  0  0
 23 24  2  0  0  0
 24 25  1  0  0  0
 25 26  2  0  0  0
 24 27  1  0  0  0
 27 28  3  0  0  0
  7 13  1  0  0  0
 13 14  2  0  0  0
 14 15  1  0  0  0
 15 16  2  0  0  0
 15 17  1  0  0  0
 17 18  1  0  0  0
 18 19  2  0  0  0
 36 31  1  0  0  0
  6  1  1  0  0  0
 26 21  1  0  0  0
 19 13  1  0  0  0
 11  4  1  0  0  0
 17 20  1  0  0  0
M  END
> <minimizedAffinity>
19.06594

> <CNNscore>
0.4371259809

> <CNNaffinity>
7.7157187462

> <CNN_VS>
3.3727412224

> <CNNaffinity_variance>
0.7842260599

$$$$
[H]c1nc(C([H])([H])N2C([H])([H])C([H])([H])C3(C(=O)N(c4c([H])c([H])c(C#N)c([H])c4[H])C(=O)N3c3nc([H])n([H])c(=O)c3[H])C([H])([H])C2([H])[H])c(C([H])([H])[H])c([H])c1[H]


 36 40  0  0  0  0  0  0  0  0999 V2000
    8.9057   48.0400  130.5624 N   0  0  0  0  0  0  0  0  0  0  0  0
    7.9013   47.4946  131.4860 C   0  0  0  0  0  0  0  0  0  0  0  0
    8.4418   46.3560  132.2853 C   0  0  0  0  0  0  0  0  0  0  0  0
    9.5193   45.5725  131.5774 C   0  0  0  0  0  0  0  0  0  0  0  0
   10.6266   46.4500  131.0248 C   0  0  0  0  0  0  0  0  0  0  0  0
   10.1845   47.8799  131.2476 C   0  0  0  0  0  0  0  0  0  0  0  0
   10.1142   44.6274  132.4933 N   0  0  0  0  0  0  0  0  0  0  0  0
   10.5254   43.5217  131.6839 C   0  0  0  0  0  0  0  0  0  0  0  0
   11.3858   42.6474  132.0375 O   0  0  0  0  0  0  0  0  0  0  0  0
    9.8321   43.5483  130.4354 N   0  0  0  0  0  0  0  0  0  0  0  0
    8.9875   44.7024  130.5093 C   0  0  0  0  0  0  0  0  0  0  0  0
    7.9878   44.9151  129.7913 O   0  0  0  0  0  0  0  0  0  0  0  0
   10.2874   44.7121  133.9065 C   0  0  0  0  0  0  0  0  0  0  0  0
   10.9935   43.7393  134.5996 C   0  0  0  0  0  0  0  0  0  0  0  0
   11.1565   43.8297  135.9674 C   0  0  0  0  0  0  0  0  0  0  0  0
   11.8005   42.9496  136.6240 O   0  0  0  0  0  0  0  0  0  0  0  0
   10.6385   44.8610  136.6795 N   0  0  0  0  0  0  0  0  0  0  0  0
    9.9584   45.7906  135.9845 C   0  0  0  0  0  0  0  0  0  0  0  0
    9.7896   45.7185  134.6491 N   0  0  0  0  0  0  0  0  0  0  0  0
   10.7601   44.9362  137.7252 H   0  0  0  0  0  0  0  0  0  0  0  0
    9.9648   42.6221  129.3657 C   0  0  0  0  0  0  0  0  0  0  0  0
   10.2118   42.9972  128.0778 C   0  0  0  0  0  0  0  0  0  0  0  0
   10.3304   42.0472  127.0809 C   0  0  0  0  0  0  0  0  0  0  0  0
   10.2017   40.6864  127.3614 C   0  0  0  0  0  0  0  0  0  0  0  0
    9.9536   40.3121  128.6567 C   0  0  0  0  0  0  0  0  0  0  0  0
    9.8377   41.2573  129.6364 C   0  0  0  0  0  0  0  0  0  0  0  0
   10.3285   39.7074  126.3108 C   0  0  0  0  0  0  0  0  0  0  0  0
   10.4308   38.9384  125.4614 N   0  0  0  0  0  0  0  0  0  0  0  0
    8.6038   49.4386  130.3516 C   0  0  0  0  0  0  0  0  0  0  0  0
    7.1739   47.9843  128.3492 C   0  0  0  0  0  0  0  0  0  0  0  0
    6.4869   49.0444  129.1116 C   0  0  0  0  0  0  0  0  0  0  0  0
    5.1690   49.3459  128.8598 C   0  0  0  0  0  0  0  0  0  0  0  0
    4.5070   50.3440  129.5722 C   0  0  0  0  0  0  0  0  0  0  0  0
    5.2440   50.9958  130.5258 C   0  0  0  0  0  0  0  0  0  0  0  0
    6.5294   50.6823  130.7519 N   0  0  0  0  0  0  0  0  0  0  0  0
    7.1880   49.7281  130.0816 C   0  0  0  0  0  0  0  0  0  0  0  0
 30 31  1  0  0  0
 31 32  2  0  0  0
 32 33  1  0  0  0
 33 34  2  0  0  0
 34 35  1  0  0  0
 35 36  2  0  0  0
 36 29  1  0  0  0
 29  1  1  0  0  0
  1  2  1  0  0  0
  2  3  1  0  0  0
  3  4  1  0  0  0
  4  5  1  0  0  0
  5  6  1  0  0  0
  4  7  1  0  0  0
  7  8  1  0  0  0
  8  9  2  0  0  0
  8 10  1  0  0  0
 10 11  1  0  0  0
 11 12  2  0  0  0
 10 21  1  0  0  0
 21 22  2  0  0  0
 22 23  1  0  0  0
 23 24  2  0  0  0
 24 25  1  0  0  0
 25 26  2  0  0  0
 24 27  1  0  0  0
 27 28  3  0  0  0
  7 13  1  0  0  0
 13 14  2  0  0  0
 14 15  1  0  0  0
 15 16  2  0  0  0
 15 17  1  0  0  0
 17 18  1  0  0  0
 18 19  2  0  0  0
 36 31  1  0  0  0
  6  1  1  0  0  0
 26 21  1  0  0  0
 19 13  1  0  0  0
 11  4  1  0  0  0
 17 20  1  0  0  0
M  END
> <minimizedAffinity>
17.63354

> <CNNscore>
0.3906922340

> <CNNaffinity>
7.8728294373

> <CNN_VS>
3.0758533478

> <CNNaffinity_variance>
1.0144963264

$$$$
[H]c1nc(C([H])([H])N2C([H])([H])C([H])([H])C3(C(=O)N(c4c([H])c([H])c(C#N)c([H])c4[H])C(=O)N3c3nc([H])n([H])c(=O)c3[H])C([H])([H])C2([H])[H])c(C([H])([H])[H])c([H])c1[H]


 36 40  0  0  0  0  0  0  0  0999 V2000
    8.3705   47.1028  129.6124 N   0  0  0  0  0  0  0  0  0  0  0  0
    9.4467   46.4466  128.8568 C   0  0  0  0  0  0  0  0  0  0  0  0
   10.0359   45.3011  129.6105 C   0  0  0  0  0  0  0  0  0  0  0  0
    9.9685   45.4593  131.1093 C   0  0  0  0  0  0  0  0  0  0  0  0
    8.5790   45.8081  131.6083 C   0  0  0  0  0  0  0  0  0  0  0  0
    7.7313   46.0355  130.3757 C   0  0  0  0  0  0  0  0  0  0  0  0
   10.3755   44.2287  131.7467 N   0  0  0  0  0  0  0  0  0  0  0  0
   10.9687   44.6222  132.9877 C   0  0  0  0  0  0  0  0  0  0  0  0
   11.1392   43.8450  133.9860 O   0  0  0  0  0  0  0  0  0  0  0  0
   11.3356   46.0016  132.9359 N   0  0  0  0  0  0  0  0  0  0  0  0
   10.9481   46.4354  131.6274 C   0  0  0  0  0  0  0  0  0  0  0  0
   11.3733   47.4570  131.0479 O   0  0  0  0  0  0  0  0  0  0  0  0
   10.2460   42.8818  131.2958 C   0  0  0  0  0  0  0  0  0  0  0  0
   11.0433   41.8734  131.8181 C   0  0  0  0  0  0  0  0  0  0  0  0
   10.9107   40.5725  131.3760 C   0  0  0  0  0  0  0  0  0  0  0  0
   11.6307   39.6313  131.8408 O   0  0  0  0  0  0  0  0  0  0  0  0
   10.0063   40.2327  130.4243 N   0  0  0  0  0  0  0  0  0  0  0  0
    9.2457   41.2281  129.9341 C   0  0  0  0  0  0  0  0  0  0  0  0
    9.3615   42.5037  130.3540 N   0  0  0  0  0  0  0  0  0  0  0  0
    9.8995   39.2398  130.0825 H   0  0  0  0  0  0  0  0  0  0  0  0
   11.9506   46.7603  133.9683 C   0  0  0  0  0  0  0  0  0  0  0  0
   11.3165   47.7663  134.6363 C   0  0  0  0  0  0  0  0  0  0  0  0
   11.9697   48.4681  135.6319 C   0  0  0  0  0  0  0  0  0  0  0  0
   13.2876   48.1697  135.9799 C   0  0  0  0  0  0  0  0  0  0  0  0
   13.9226   47.1580  135.3070 C   0  0  0  0  0  0  0  0  0  0  0  0
   13.2699   46.4691  134.3241 C   0  0  0  0  0  0  0  0  0  0  0  0
   13.9554   48.9103  137.0209 C   0  0  0  0  0  0  0  0  0  0  0  0
   14.4827   49.4904  137.8628 N   0  0  0  0  0  0  0  0  0  0  0  0
    7.4479   47.6820  128.6612 C   0  0  0  0  0  0  0  0  0  0  0  0
    8.5909   49.8170  130.1793 C   0  0  0  0  0  0  0  0  0  0  0  0
    7.1344   49.7861  129.9453 C   0  0  0  0  0  0  0  0  0  0  0  0
    6.3216   50.7687  130.4600 C   0  0  0  0  0  0  0  0  0  0  0  0
    4.9446   50.7528  130.2468 C   0  0  0  0  0  0  0  0  0  0  0  0
    4.4604   49.7098  129.5019 C   0  0  0  0  0  0  0  0  0  0  0  0
    5.2756   48.7631  129.0109 N   0  0  0  0  0  0  0  0  0  0  0  0
    6.6011   48.7555  129.2014 C   0  0  0  0  0  0  0  0  0  0  0  0
 30 31  1  0  0  0
 31 32  2  0  0  0
 32 33  1  0  0  0
 33 34  2  0  0  0
 34 35  1  0  0  0
 35 36  2  0  0  0
 36 29  1  0  0  0
 29  1  1  0  0  0
  1  2  1  0  0  0
  2  3  1  0  0  0
  3  4  1  0  0  0
  4  5  1  0  0  0
  5  6  1  0  0  0
  4  7  1  0  0  0
  7  8  1  0  0  0
  8  9  2  0  0  0
  8 10  1  0  0  0
 10 11  1  0  0  0
 11 12  2  0  0  0
 10 21  1  0  0  0
 21 22  2  0  0  0
 22 23  1  0  0  0
 23 24  2  0  0  0
 24 25  1  0  0  0
 25 26  2  0  0  0
 24 27  1  0  0  0
 27 28  3  0  0  0
  7 13  1  0  0  0
 13 14  2  0  0  0
 14 15  1  0  0  0
 15 16  2  0  0  0
 15 17  1  0  0  0
 17 18  1  0  0  0
 18 19  2  0  0  0
 36 31  1  0  0  0
  6  1  1  0  0  0
 26 21  1  0  0  0
 19 13  1  0  0  0
 11  4  1  0  0  0
 17 20  1  0  0  0
M  END
> <minimizedAffinity>
17.97173

> <CNNscore>
0.3861850798

> <CNNaffinity>
7.6693162918

> <CNN_VS>
2.9617755413

> <CNNaffinity_variance>
0.5905219316

$$$$
[H]c1nc(C([H])([H])N2C([H])([H])C([H])([H])C3(C(=O)N(c4c([H])c([H])c(C#N)c([H])c4[H])C(=O)N3c3nc([H])n([H])c(=O)c3[H])C([H])([H])C2([H])[H])c(C([H])([H])[H])c([H])c1[H]


 36 40  0  0  0  0  0  0  0  0999 V2000
   12.0839   45.9338  133.4368 N   0  0  0  0  0  0  0  0  0  0  0  0
   10.9147   45.3647  134.1213 C   0  0  0  0  0  0  0  0  0  0  0  0
    9.8835   44.8859  133.1544 C   0  0  0  0  0  0  0  0  0  0  0  0
    9.8698   45.6474  131.8522 C   0  0  0  0  0  0  0  0  0  0  0  0
   11.2403   45.7515  131.2100 C   0  0  0  0  0  0  0  0  0  0  0  0
   12.2190   45.1647  132.2038 C   0  0  0  0  0  0  0  0  0  0  0  0
    8.9869   44.9923  130.9155 N   0  0  0  0  0  0  0  0  0  0  0  0
    8.4697   46.0375  130.0867 C   0  0  0  0  0  0  0  0  0  0  0  0
    7.9391   45.8553  128.9400 O   0  0  0  0  0  0  0  0  0  0  0  0
    8.6373   47.2997  130.7339 N   0  0  0  0  0  0  0  0  0  0  0  0
    9.2715   46.9914  131.9803 C   0  0  0  0  0  0  0  0  0  0  0  0
    9.3018   47.7379  132.9814 O   0  0  0  0  0  0  0  0  0  0  0  0
    8.6560   43.6109  130.7870 C   0  0  0  0  0  0  0  0  0  0  0  0
    7.7047   43.0243  131.6093 C   0  0  0  0  0  0  0  0  0  0  0  0
    7.3905   41.6866  131.4776 C   0  0  0  0  0  0  0  0  0  0  0  0
    6.5211   41.1273  132.2204 O   0  0  0  0  0  0  0  0  0  0  0  0
    7.9927   40.9019  130.5499 N   0  0  0  0  0  0  0  0  0  0  0  0
    8.9111   41.4942  129.7653 C   0  0  0  0  0  0  0  0  0  0  0  0
    9.2302   42.7987  129.8799 N   0  0  0  0  0  0  0  0  0  0  0  0
    7.7566   39.8787  130.4436 H   0  0  0  0  0  0  0  0  0  0  0  0
    8.2518   48.5729  130.2341 C   0  0  0  0  0  0  0  0  0  0  0  0
    8.4595   49.7374  130.9133 C   0  0  0  0  0  0  0  0  0  0  0  0
    8.0610   50.9455  130.3728 C   0  0  0  0  0  0  0  0  0  0  0  0
    7.4392   51.0082  129.1253 C   0  0  0  0  0  0  0  0  0  0  0  0
    7.2317   49.8363  128.4446 C   0  0  0  0  0  0  0  0  0  0  0  0
    7.6285   48.6463  128.9857 C   0  0  0  0  0  0  0  0  0  0  0  0
    7.0297   52.2760  128.5745 C   0  0  0  0  0  0  0  0  0  0  0  0
    6.7163   53.2875  128.1252 N   0  0  0  0  0  0  0  0  0  0  0  0
   13.2352   45.7463  134.2917 C   0  0  0  0  0  0  0  0  0  0  0  0
   11.3990   47.9205  134.5567 C   0  0  0  0  0  0  0  0  0  0  0  0
   12.6761   47.9497  135.2951 C   0  0  0  0  0  0  0  0  0  0  0  0
   12.9950   49.0179  136.1003 C   0  0  0  0  0  0  0  0  0  0  0  0
   14.1971   49.0590  136.8040 C   0  0  0  0  0  0  0  0  0  0  0  0
   15.0283   47.9817  136.6437 C   0  0  0  0  0  0  0  0  0  0  0  0
   14.6932   46.9513  135.8513 N   0  0  0  0  0  0  0  0  0  0  0  0
   13.5450   46.8877  135.1649 C   0  0  0  0  0  0  0  0  0  0  0  0
 30 31  1  0  0  0
 31 32  2  0  0  0
 32 33  1  0  0  0
 33 34  2  0  0  0
 34 35  1  0  0  0
 35 36  2  0  0  0
 36 29  1  0  0  0
 29  1  1  0  0  0
  1  2  1  0  0  0
  2  3  1  0  0  0
  3  4  1  0  0  0
  4  5  1  0  0  0
  5  6  1  0  0  0
  4  7  1  0  0  0
  7  8  1  0  0  0
  8  9  2  0  0  0
  8 10  1  0  0  0
 10 11  1  0  0  0
 11 12  2  0  0  0
 10 21  1  0  0  0
 21 22  2  0  0  0
 22 23  1  0  0  0
 23 24  2  0  0  0
 24 25  1  0  0  0
 25 26  2  0  0  0
 24 27  1  0  0  0
 27 28  3  0  0  0
  7 13  1  0  0  0
 13 14  2  0  0  0
 14 15  1  0  0  0
 15 16  2  0  0  0
 15 17  1  0  0  0
 17 18  1  0  0  0
 18 19  2  0  0  0
 36 31  1  0  0  0
  6  1  1  0  0  0
 26 21  1  0  0  0
 19 13  1  0  0  0
 11  4  1  0  0  0
 17 20  1  0  0  0
M  END
> <minimizedAffinity>
14.44785

> <CNNscore>
0.3193290532

> <CNNaffinity>
7.4694252014

> <CNN_VS>
2.3852045536

> <CNNaffinity_variance>
0.8669201136

$$$$
[H]c1nc(C([H])([H])N2C([H])([H])C([H])([H])C3(C(=O)N(c4c([H])c([H])c(C#N)c([H])c4[H])C(=O)N3c3nc([H])n([H])c(=O)c3[H])C([H])([H])C2([H])[H])c(C([H])([H])[H])c([H])c1[H]


 36 40  0  0  0  0  0  0  0  0999 V2000
    8.9399   48.8704  130.9798 N   0  0  0  0  0  0  0  0  0  0  0  0
    8.0133   47.8456  131.4804 C   0  0  0  0  0  0  0  0  0  0  0  0
    8.7298   46.7551  132.2050 C   0  0  0  0  0  0  0  0  0  0  0  0
   10.1368   46.5202  131.7141 C   0  0  0  0  0  0  0  0  0  0  0  0
   10.9630   47.7908  131.6470 C   0  0  0  0  0  0  0  0  0  0  0  0
   10.0165   48.9283  131.9636 C   0  0  0  0  0  0  0  0  0  0  0  0
   10.8111   45.5958  132.5955 N   0  0  0  0  0  0  0  0  0  0  0  0
   11.7428   44.8931  131.7679 C   0  0  0  0  0  0  0  0  0  0  0  0
   12.7555   44.2500  132.2044 O   0  0  0  0  0  0  0  0  0  0  0  0
   11.3678   45.0215  130.3957 N   0  0  0  0  0  0  0  0  0  0  0  0
   10.1812   45.8229  130.4131 C   0  0  0  0  0  0  0  0  0  0  0  0
    9.3482   45.9033  129.4857 O   0  0  0  0  0  0  0  0  0  0  0  0
   10.6371   45.3776  133.9943 C   0  0  0  0  0  0  0  0  0  0  0  0
   11.2054   44.2785  134.6223 C   0  0  0  0  0  0  0  0  0  0  0  0
   11.0322   44.0756  135.9766 C   0  0  0  0  0  0  0  0  0  0  0  0
   11.5442   43.0749  136.5741 O   0  0  0  0  0  0  0  0  0  0  0  0
   10.3076   44.9325  136.7380 N   0  0  0  0  0  0  0  0  0  0  0  0
    9.7672   45.9898  136.1056 C   0  0  0  0  0  0  0  0  0  0  0  0
    9.9262   46.2037  134.7843 N   0  0  0  0  0  0  0  0  0  0  0  0
   10.1719   44.7834  137.7740 H   0  0  0  0  0  0  0  0  0  0  0  0
   12.0388   44.4671  129.2723 C   0  0  0  0  0  0  0  0  0  0  0  0
   13.3974   44.4227  129.1594 C   0  0  0  0  0  0  0  0  0  0  0  0
   13.9907   43.8698  128.0401 C   0  0  0  0  0  0  0  0  0  0  0  0
   13.2221   43.3447  127.0006 C   0  0  0  0  0  0  0  0  0  0  0  0
   11.8568   43.3904  127.1167 C   0  0  0  0  0  0  0  0  0  0  0  0
   11.2781   43.9387  128.2262 C   0  0  0  0  0  0  0  0  0  0  0  0
   13.8555   42.7708  125.8398 C   0  0  0  0  0  0  0  0  0  0  0  0
   14.3478   42.3033  124.9110 N   0  0  0  0  0  0  0  0  0  0  0  0
    8.2253   50.1263  130.9211 C   0  0  0  0  0  0  0  0  0  0  0  0
    7.7574   48.5498  128.5834 C   0  0  0  0  0  0  0  0  0  0  0  0
    6.6416   49.2963  129.1955 C   0  0  0  0  0  0  0  0  0  0  0  0
    5.3822   49.2490  128.6452 C   0  0  0  0  0  0  0  0  0  0  0  0
    4.3189   49.9483  129.2126 C   0  0  0  0  0  0  0  0  0  0  0  0
    4.6056   50.6755  130.3379 C   0  0  0  0  0  0  0  0  0  0  0  0
    5.8439   50.7051  130.8550 N   0  0  0  0  0  0  0  0  0  0  0  0
    6.8822   50.0425  130.3293 C   0  0  0  0  0  0  0  0  0  0  0  0
 30 31  1  0  0  0
 31 32  2  0  0  0
 32 33  1  0  0  0
 33 34  2  0  0  0
 34 35  1  0  0  0
 35 36  2  0  0  0
 36 29  1  0  0  0
 29  1  1  0  0  0
  1  2  1  0  0  0
  2  3  1  0  0  0
  3  4  1  0  0  0
  4  5  1  0  0  0
  5  6  1  0  0  0
  4  7  1  0  0  0
  7  8  1  0  0  0
  8  9  2  0  0  0
  8 10  1  0  0  0
 10 11  1  0  0  0
 11 12  2  0  0  0
 10 21  1  0  0  0
 21 22  2  0  0  0
 22 23  1  0  0  0
 23 24  2  0  0  0
 24 25  1  0  0  0
 25 26  2  0  0  0
 24 27  1  0  0  0
 27 28  3  0  0  0
  7 13  1  0  0  0
 13 14  2  0  0  0
 14 15  1  0  0  0
 15 16  2  0  0  0
 15 17  1  0  0  0
 17 18  1  0  0  0
 18 19  2  0  0  0
 36 31  1  0  0  0
  6  1  1  0  0  0
 26 21  1  0  0  0
 19 13  1  0  0  0
 11  4  1  0  0  0
 17 20  1  0  0  0
M  END
> <minimizedAffinity>
15.89336

> <CNNscore>
0.2692038119

> <CNNaffinity>
7.5445365906

> <CNN_VS>
2.0310180187

> <CNNaffinity_variance>
0.6812192798

$$$$
[H]c1nc(C([H])([H])N2C([H])([H])C([H])([H])C3(C(=O)N(c4c([H])c([H])c(C#N)c([H])c4[H])C(=O)N3c3nc([H])n([H])c(=O)c3[H])C([H])([H])C2([H])[H])c(C([H])([H])[H])c([H])c1[H]


 36 40  0  0  0  0  0  0  0  0999 V2000
    7.2290   47.2101  130.4047 N   0  0  0  0  0  0  0  0  0  0  0  0
    6.8295   46.0030  131.1413 C   0  0  0  0  0  0  0  0  0  0  0  0
    7.9559   45.4449  131.9458 C   0  0  0  0  0  0  0  0  0  0  0  0
    9.3181   45.7200  131.3589 C   0  0  0  0  0  0  0  0  0  0  0  0
    9.5358   47.1831  131.0221 C   0  0  0  0  0  0  0  0  0  0  0  0
    8.2100   47.8735  131.2578 C   0  0  0  0  0  0  0  0  0  0  0  0
   10.3412   45.3212  132.2972 N   0  0  0  0  0  0  0  0  0  0  0  0
   11.4577   44.9243  131.4955 C   0  0  0  0  0  0  0  0  0  0  0  0
   12.6582   44.8368  131.9207 O   0  0  0  0  0  0  0  0  0  0  0  0
   11.0251   44.6448  130.1632 N   0  0  0  0  0  0  0  0  0  0  0  0
    9.6132   44.8835  130.1782 C   0  0  0  0  0  0  0  0  0  0  0  0
    8.7973   44.4531  129.3360 O   0  0  0  0  0  0  0  0  0  0  0  0
   10.3134   45.3016  133.7231 C   0  0  0  0  0  0  0  0  0  0  0  0
   10.9016   44.2662  134.4352 C   0  0  0  0  0  0  0  0  0  0  0  0
   10.8703   44.2557  135.8152 C   0  0  0  0  0  0  0  0  0  0  0  0
   11.4033   43.3167  136.4894 O   0  0  0  0  0  0  0  0  0  0  0  0
   10.2699   45.2458  136.5212 N   0  0  0  0  0  0  0  0  0  0  0  0
    9.7072   46.2377  135.8077 C   0  0  0  0  0  0  0  0  0  0  0  0
    9.7284   46.2642  134.4602 N   0  0  0  0  0  0  0  0  0  0  0  0
   10.2430   45.2440  137.5763 H   0  0  0  0  0  0  0  0  0  0  0  0
   11.8346   44.2227  129.0741 C   0  0  0  0  0  0  0  0  0  0  0  0
   13.1948   44.3247  129.0695 C   0  0  0  0  0  0  0  0  0  0  0  0
   13.9268   43.8957  127.9784 C   0  0  0  0  0  0  0  0  0  0  0  0
   13.2997   43.3497  126.8579 C   0  0  0  0  0  0  0  0  0  0  0  0
   11.9325   43.2481  126.8651 C   0  0  0  0  0  0  0  0  0  0  0  0
   11.2162   43.6744  127.9476 C   0  0  0  0  0  0  0  0  0  0  0  0
   14.0769   42.9062  125.7276 C   0  0  0  0  0  0  0  0  0  0  0  0
   14.6841   42.5552  124.8157 N   0  0  0  0  0  0  0  0  0  0  0  0
    6.0538   48.0348  130.2306 C   0  0  0  0  0  0  0  0  0  0  0  0
    7.4419   48.5027  127.7764 C   0  0  0  0  0  0  0  0  0  0  0  0
    7.0047   49.6481  128.5973 C   0  0  0  0  0  0  0  0  0  0  0  0
    7.2686   50.9372  128.1977 C   0  0  0  0  0  0  0  0  0  0  0  0
    6.8614   52.0286  128.9624 C   0  0  0  0  0  0  0  0  0  0  0  0
    6.1908   51.7379  130.1213 C   0  0  0  0  0  0  0  0  0  0  0  0
    5.9459   50.4703  130.4889 N   0  0  0  0  0  0  0  0  0  0  0  0
    6.3263   49.4048  129.7723 C   0  0  0  0  0  0  0  0  0  0  0  0
 30 31  1  0  0  0
 31 32  2  0  0  0
 32 33  1  0  0  0
 33 34  2  0  0  0
 34 35  1  0  0  0
 35 36  2  0  0  0
 36 29  1  0  0  0
 29  1  1  0  0  0
  1  2  1  0  0  0
  2  3  1  0  0  0
  3  4  1  0  0  0
  4  5  1  0  0  0
  5  6  1  0  0  0
  4  7  1  0  0  0
  7  8  1  0  0  0
  8  9  2  0  0  0
  8 10  1  0  0  0
 10 11  1  0  0  0
 11 12  2  0  0  0
 10 21  1  0  0  0
 21 22  2  0  0  0
 22 23  1  0  0  0
 23 24  2  0  0  0
 24 25  1  0  0  0
 25 26  2  0  0  0
 24 27  1  0  0  0
 27 28  3  0  0  0
  7 13  1  0  0  0
 13 14  2  0  0  0
 14 15  1  0  0  0
 15 16  2  0  0  0
 15 17  1  0  0  0
 17 18  1  0  0  0
 18 19  2  0  0  0
 36 31  1  0  0  0
  6  1  1  0  0  0
 26 21  1  0  0  0
 19 13  1  0  0  0
 11  4  1  0  0  0
 17 20  1  0  0  0
M  END
> <minimizedAffinity>
18.10372

> <CNNscore>
0.2607930303

> <CNNaffinity>
7.5724878311

> <CNN_VS>
1.9748520851

> <CNNaffinity_variance>
0.5993637443

$$$$
[H]c1nc(C([H])([H])N2C([H])([H])C([H])([H])C3(C(=O)N(c4c([H])c([H])c(C#N)c([H])c4[H])C(=O)N3c3nc([H])n([H])c(=O)c3[H])C([H])([H])C2([H])[H])c(C([H])([H])[H])c([H])c1[H]


 36 40  0  0  0  0  0  0  0  0999 V2000
    9.3626   46.6315  133.7353 N   0  0  0  0  0  0  0  0  0  0  0  0
    9.0060   45.2834  133.2717 C   0  0  0  0  0  0  0  0  0  0  0  0
    9.1749   45.1407  131.7957 C   0  0  0  0  0  0  0  0  0  0  0  0
    8.9747   46.4268  131.0329 C   0  0  0  0  0  0  0  0  0  0  0  0
    9.7920   47.5792  131.5856 C   0  0  0  0  0  0  0  0  0  0  0  0
   10.4407   47.0681  132.8536 C   0  0  0  0  0  0  0  0  0  0  0  0
    9.3503   46.2359  129.6514 N   0  0  0  0  0  0  0  0  0  0  0  0
    8.5163   47.1268  128.9046 C   0  0  0  0  0  0  0  0  0  0  0  0
    8.7594   47.5171  127.7138 O   0  0  0  0  0  0  0  0  0  0  0  0
    7.3844   47.5060  129.6890 N   0  0  0  0  0  0  0  0  0  0  0  0
    7.5546   46.8198  130.9344 C   0  0  0  0  0  0  0  0  0  0  0  0
    6.6527   46.6038  131.7711 O   0  0  0  0  0  0  0  0  0  0  0  0
   10.3289   45.3672  129.0839 C   0  0  0  0  0  0  0  0  0  0  0  0
   11.6294   45.3431  129.5672 C   0  0  0  0  0  0  0  0  0  0  0  0
   12.5698   44.4988  129.0121 C   0  0  0  0  0  0  0  0  0  0  0  0
   13.7684   44.4593  129.4391 O   0  0  0  0  0  0  0  0  0  0  0  0
   12.2633   43.6693  127.9840 N   0  0  0  0  0  0  0  0  0  0  0  0
   10.9963   43.7116  127.5337 C   0  0  0  0  0  0  0  0  0  0  0  0
   10.0651   44.5294  128.0637 N   0  0  0  0  0  0  0  0  0  0  0  0
   12.9776   43.0209  127.5556 H   0  0  0  0  0  0  0  0  0  0  0  0
    6.3297   48.3756  129.3005 C   0  0  0  0  0  0  0  0  0  0  0  0
    6.1631   49.6268  129.8172 C   0  0  0  0  0  0  0  0  0  0  0  0
    5.1158   50.4254  129.3979 C   0  0  0  0  0  0  0  0  0  0  0  0
    4.2051   49.9776  128.4403 C   0  0  0  0  0  0  0  0  0  0  0  0
    4.3748   48.7196  127.9224 C   0  0  0  0  0  0  0  0  0  0  0  0
    5.4126   47.9364  128.3422 C   0  0  0  0  0  0  0  0  0  0  0  0
    3.1181   50.8224  128.0126 C   0  0  0  0  0  0  0  0  0  0  0  0
    2.2572   51.4971  127.6561 N   0  0  0  0  0  0  0  0  0  0  0  0
    9.8236   46.5249  135.1019 C   0  0  0  0  0  0  0  0  0  0  0  0
   12.1891   46.0251  133.5775 C   0  0  0  0  0  0  0  0  0  0  0  0
   11.7971   45.0856  134.6456 C   0  0  0  0  0  0  0  0  0  0  0  0
   12.5533   43.9670  134.9064 C   0  0  0  0  0  0  0  0  0  0  0  0
   12.1957   43.0713  135.9122 C   0  0  0  0  0  0  0  0  0  0  0  0
   11.0584   43.3733  136.6140 C   0  0  0  0  0  0  0  0  0  0  0  0
   10.3378   44.4720  136.3393 N   0  0  0  0  0  0  0  0  0  0  0  0
   10.6597   45.3478  135.3787 C   0  0  0  0  0  0  0  0  0  0  0  0
 30 31  1  0  0  0
 31 32  2  0  0  0
 32 33  1  0  0  0
 33 34  2  0  0  0
 34 35  1  0  0  0
 35 36  2  0  0  0
 36 29  1  0  0  0
 29  1  1  0  0  0
  1  2  1  0  0  0
  2  3  1  0  0  0
  3  4  1  0  0  0
  4  5  1  0  0  0
  5  6  1  0  0  0
  4  7  1  0  0  0
  7  8  1  0  0  0
  8  9  2  0  0  0
  8 10  1  0  0  0
 10 11  1  0  0  0
 11 12  2  0  0  0
 10 21  1  0  0  0
 21 22  2  0  0  0
 22 23  1  0  0  0
 23 24  2  0  0  0
 24 25  1  0  0  0
 25 26  2  0  0  0
 24 27  1  0  0  0
 27 28  3  0  0  0
  7 13  1  0  0  0
 13 14  2  0  0  0
 14 15  1  0  0  0
 15 16  2  0  0  0
 15 17  1  0  0  0
 17 18  1  0  0  0
 18 19  2  0  0  0
 36 31  1  0  0  0
  6  1  1  0  0  0
 26 21  1  0  0  0
 19 13  1  0  0  0
 11  4  1  0  0  0
 17 20  1  0  0  0
M  END
> <minimizedAffinity>
17.43057

> <CNNscore>
0.2072488964

> <CNNaffinity>
7.3352937698

> <CNN_VS>
1.5202314854

> <CNNaffinity_variance>
0.3378264308

$$$$
[H]c1nc(C([H])([H])N2C([H])([H])C([H])([H])C3(C(=O)N(c4c([H])c([H])c(C#N)c([H])c4[H])C(=O)N3c3nc([H])n([H])c(=O)c3[H])C([H])([H])C2([H])[H])c(C([H])([H])[H])c([H])c1[H]


 36 40  0  0  0  0  0  0  0  0999 V2000
   10.1766   47.8135  133.7879 N   0  0  0  0  0  0  0  0  0  0  0  0
   10.6611   48.8745  132.8940 C   0  0  0  0  0  0  0  0  0  0  0  0
    9.7786   49.0429  131.7023 C   0  0  0  0  0  0  0  0  0  0  0  0
    9.0753   47.7763  131.2817 C   0  0  0  0  0  0  0  0  0  0  0  0
    8.3537   47.0890  132.4257 C   0  0  0  0  0  0  0  0  0  0  0  0
    8.7218   47.8538  133.6785 C   0  0  0  0  0  0  0  0  0  0  0  0
    8.1024   48.0777  130.2576 N   0  0  0  0  0  0  0  0  0  0  0  0
    8.0291   46.9019  129.4458 C   0  0  0  0  0  0  0  0  0  0  0  0
    7.0615   46.6249  128.6605 O   0  0  0  0  0  0  0  0  0  0  0  0
    9.1918   46.0975  129.6484 N   0  0  0  0  0  0  0  0  0  0  0  0
    9.9742   46.8183  130.6070 C   0  0  0  0  0  0  0  0  0  0  0  0
   11.1939   46.6516  130.8184 O   0  0  0  0  0  0  0  0  0  0  0  0
    7.3431   49.2657  130.0423 C   0  0  0  0  0  0  0  0  0  0  0  0
    7.6880   50.1628  129.0415 C   0  0  0  0  0  0  0  0  0  0  0  0
    6.9470   51.3099  128.8400 C   0  0  0  0  0  0  0  0  0  0  0  0
    7.2443   52.1469  127.9281 O   0  0  0  0  0  0  0  0  0  0  0  0
    5.8652   51.6020  129.6038 N   0  0  0  0  0  0  0  0  0  0  0  0
    5.5518   50.7167  130.5670 C   0  0  0  0  0  0  0  0  0  0  0  0
    6.2638   49.5917  130.7777 N   0  0  0  0  0  0  0  0  0  0  0  0
    5.2941   52.4770  129.4545 H   0  0  0  0  0  0  0  0  0  0  0  0
    9.4895   44.8556  129.0248 C   0  0  0  0  0  0  0  0  0  0  0  0
   10.3257   44.7379  127.9537 C   0  0  0  0  0  0  0  0  0  0  0  0
   10.5753   43.5003  127.3912 C   0  0  0  0  0  0  0  0  0  0  0  0
    9.9831   42.3436  127.8995 C   0  0  0  0  0  0  0  0  0  0  0  0
    9.1432   42.4646  128.9763 C   0  0  0  0  0  0  0  0  0  0  0  0
    8.9016   43.6916  129.5265 C   0  0  0  0  0  0  0  0  0  0  0  0
   10.2537   41.0597  127.3022 C   0  0  0  0  0  0  0  0  0  0  0  0
   10.4640   40.0409  126.8111 N   0  0  0  0  0  0  0  0  0  0  0  0
   10.6029   48.1345  135.1320 C   0  0  0  0  0  0  0  0  0  0  0  0
   12.0123   45.8923  134.0571 C   0  0  0  0  0  0  0  0  0  0  0  0
   12.7350   46.8841  134.8763 C   0  0  0  0  0  0  0  0  0  0  0  0
   14.0770   46.7334  135.1359 C   0  0  0  0  0  0  0  0  0  0  0  0
   14.7727   47.6622  135.9074 C   0  0  0  0  0  0  0  0  0  0  0  0
   14.0432   48.7199  136.3834 C   0  0  0  0  0  0  0  0  0  0  0  0
   12.7337   48.8436  136.1155 N   0  0  0  0  0  0  0  0  0  0  0  0
   12.0426   47.9655  135.3773 C   0  0  0  0  0  0  0  0  0  0  0  0
 30 31  1  0  0  0
 31 32  2  0  0  0
 32 33  1  0  0  0
 33 34  2  0  0  0
 34 35  1  0  0  0
 35 36  2  0  0  0
 36 29  1  0  0  0
 29  1  1  0  0  0
  1  2  1  0  0  0
  2  3  1  0  0  0
  3  4  1  0  0  0
  4  5  1  0  0  0
  5  6  1  0  0  0
  4  7  1  0  0  0
  7  8  1  0  0  0
  8  9  2  0  0  0
  8 10  1  0  0  0
 10 11  1  0  0  0
 11 12  2  0  0  0
 10 21  1  0  0  0
 21 22  2  0  0  0
 22 23  1  0  0  0
 23 24  2  0  0  0
 24 25  1  0  0  0
 25 26  2  0  0  0
 24 27  1  0  0  0
 27 28  3  0  0  0
  7 13  1  0  0  0
 13 14  2  0  0  0
 14 15  1  0  0  0
 15 16  2  0  0  0
 15 17  1  0  0  0
 17 18  1  0  0  0
 18 19  2  0  0  0
 36 31  1  0  0  0
  6  1  1  0  0  0
 26 21  1  0  0  0
 19 13  1  0  0  0
 11  4  1  0  0  0
 17 20  1  0  0  0
M  END
> <minimizedAffinity>
19.83173

> <CNNscore>
0.1624927372

> <CNNaffinity>
7.1371016502

> <CNN_VS>
1.1597272158

> <CNNaffinity_variance>
0.2804941237

$$$$
[H]c1c([H])c(-c2nc(-c3c([H])c(C([H])([H])[H])nc(C([H])([H])[H])c3[H])c3n2C([H])([H])[C@@]([H])(C([H])([H])[H])OC([H])([H])C3([H])[H])c([H])c(Cl)c1Cl


 27 30  0  0  0  0  0  0  0  0999 V2000
   10.9151   41.3594  131.4206 C   0  0  0  0  0  0  0  0  0  0  0  0
   10.6101   42.8223  131.2365 C   0  0  0  0  0  0  0  0  0  0  0  0
   10.0569   43.3687  132.5772 C   0  0  0  0  0  0  0  0  0  0  0  0
    9.7211   44.7295  132.3064 N   0  0  0  0  0  0  0  0  0  0  0  0
    8.6858   45.0516  131.4603 C   0  0  0  0  0  0  0  0  0  0  0  0
    7.7215   44.1900  130.7297 C   0  0  0  0  0  0  0  0  0  0  0  0
    8.4561   42.8889  130.3656 C   0  0  0  0  0  0  0  0  0  0  0  0
    9.7969   43.1051  130.1801 O   0  0  0  0  0  0  0  0  0  0  0  0
    8.6613   46.3927  131.3710 C   0  0  0  0  0  0  0  0  0  0  0  0
    9.6518   46.8473  132.1415 N   0  0  0  0  0  0  0  0  0  0  0  0
   10.3318   45.8236  132.7414 C   0  0  0  0  0  0  0  0  0  0  0  0
   11.4901   46.0639  133.5870 C   0  0  0  0  0  0  0  0  0  0  0  0
   12.5743   45.2752  133.7486 C   0  0  0  0  0  0  0  0  0  0  0  0
   13.6664   45.6785  134.5379 C   0  0  0  0  0  0  0  0  0  0  0  0
   13.6611   46.8799  135.1658 C   0  0  0  0  0  0  0  0  0  0  0  0
   14.9965   47.4445  136.1682 Cl  0  0  0  0  0  0  0  0  0  0  0  0
   12.5795   47.7169  135.0335 C   0  0  0  0  0  0  0  0  0  0  0  0
   12.5452   49.2893  135.8375 Cl  0  0  0  0  0  0  0  0  0  0  0  0
   11.5320   47.3065  134.2632 C   0  0  0  0  0  0  0  0  0  0  0  0
    7.7456   47.2567  130.5916 C   0  0  0  0  0  0  0  0  0  0  0  0
    8.0690   48.5528  130.2722 C   0  0  0  0  0  0  0  0  0  0  0  0
    7.1477   49.2749  129.5426 C   0  0  0  0  0  0  0  0  0  0  0  0
    7.4755   50.6684  129.1893 C   0  0  0  0  0  0  0  0  0  0  0  0
    5.9718   48.7545  129.1471 N   0  0  0  0  0  0  0  0  0  0  0  0
    5.6220   47.4890  129.4419 C   0  0  0  0  0  0  0  0  0  0  0  0
    4.3188   46.9134  129.0032 C   0  0  0  0  0  0  0  0  0  0  0  0
    6.5355   46.7480  130.1747 C   0  0  0  0  0  0  0  0  0  0  0  0
  1  2  1  0  0  0
  2  3  1  0  0  0
  3  4  1  0  0  0
  4  5  1  0  0  0
  5  6  1  0  0  0
  6  7  1  0  0  0
  7  8  1  0  0  0
  5  9  2  0  0  0
  9 10  1  0  0  0
 10 11  2  0  0  0
 11 12  1  0  0  0
 12 13  2  0  0  0
 13 14  1  0  0  0
 14 15  2  0  0  0
 15 16  1  0  0  0
 15 17  1  0  0  0
 17 18  1  0  0  0
 17 19  2  0  0  0
  9 20  1  0  0  0
 20 21  2  0  0  0
 21 22  1  0  0  0
 22 23  1  0  0  0
 22 24  2  0  0  0
 24 25  1  0  0  0
 25 26  1  0  0  0
 25 27  2  0  0  0
  8  2  1  0  0  0
 19 12  1  0  0  0
 27 20  1  0  0  0
 11  4  1  0  0  0
M  END
> <minimizedAffinity>
8.03012

> <CNNscore>
0.4476490915

> <CNNaffinity>
7.8000397682

> <CNN_VS>
3.4916806221

> <CNNaffinity_variance>
1.8248821497

$$$$
[H]c1c([H])c(-c2nc(-c3c([H])c(C([H])([H])[H])nc(C([H])([H])[H])c3[H])c3n2C([H])([H])[C@@]([H])(C([H])([H])[H])OC([H])([H])C3([H])[H])c([H])c(Cl)c1Cl


 27 30  0  0  0  0  0  0  0  0999 V2000
   11.6600   44.0692  128.4878 C   0  0  0  0  0  0  0  0  0  0  0  0
   11.0098   45.2359  129.1828 C   0  0  0  0  0  0  0  0  0  0  0  0
    9.7910   44.7018  129.9774 C   0  0  0  0  0  0  0  0  0  0  0  0
    9.1851   45.8644  130.5422 N   0  0  0  0  0  0  0  0  0  0  0  0
    8.5714   46.8039  129.7471 C   0  0  0  0  0  0  0  0  0  0  0  0
    8.3498   46.8420  128.2790 C   0  0  0  0  0  0  0  0  0  0  0  0
    9.5456   46.1360  127.6180 C   0  0  0  0  0  0  0  0  0  0  0  0
   10.6864   46.2768  128.3647 O   0  0  0  0  0  0  0  0  0  0  0  0
    8.1565   47.7895  130.5618 C   0  0  0  0  0  0  0  0  0  0  0  0
    8.5143   47.4411  131.7996 N   0  0  0  0  0  0  0  0  0  0  0  0
    9.1604   46.2359  131.8153 C   0  0  0  0  0  0  0  0  0  0  0  0
    9.6966   45.6689  133.0422 C   0  0  0  0  0  0  0  0  0  0  0  0
    9.1704   45.7364  134.2840 C   0  0  0  0  0  0  0  0  0  0  0  0
    9.7574   45.0618  135.3695 C   0  0  0  0  0  0  0  0  0  0  0  0
   10.8789   44.3195  135.1993 C   0  0  0  0  0  0  0  0  0  0  0  0
   11.6633   43.4502  136.5168 Cl  0  0  0  0  0  0  0  0  0  0  0  0
   11.4530   44.2218  133.9548 C   0  0  0  0  0  0  0  0  0  0  0  0
   12.9127   43.2599  133.7018 Cl  0  0  0  0  0  0  0  0  0  0  0  0
   10.8671   44.8832  132.9163 C   0  0  0  0  0  0  0  0  0  0  0  0
    7.4402   49.0395  130.2201 C   0  0  0  0  0  0  0  0  0  0  0  0
    6.3697   49.4854  130.9561 C   0  0  0  0  0  0  0  0  0  0  0  0
    5.7708   50.6616  130.5557 C   0  0  0  0  0  0  0  0  0  0  0  0
    4.6198   51.1577  131.3324 C   0  0  0  0  0  0  0  0  0  0  0  0
    6.1981   51.3635  129.4905 N   0  0  0  0  0  0  0  0  0  0  0  0
    7.2431   50.9568  128.7468 C   0  0  0  0  0  0  0  0  0  0  0  0
    7.7157   51.7353  127.5667 C   0  0  0  0  0  0  0  0  0  0  0  0
    7.8578   49.7766  129.1342 C   0  0  0  0  0  0  0  0  0  0  0  0
  1  2  1  0  0  0
  2  3  1  0  0  0
  3  4  1  0  0  0
  4  5  1  0  0  0
  5  6  1  0  0  0
  6  7  1  0  0  0
  7  8  1  0  0  0
  5  9  2  0  0  0
  9 10  1  0  0  0
 10 11  2  0  0  0
 11 12  1  0  0  0
 12 13  2  0  0  0
 13 14  1  0  0  0
 14 15  2  0  0  0
 15 16  1  0  0  0
 15 17  1  0  0  0
 17 18  1  0  0  0
 17 19  2  0  0  0
  9 20  1  0  0  0
 20 21  2  0  0  0
 21 22  1  0  0  0
 22 23  1  0  0  0
 22 24  2  0  0  0
 24 25  1  0  0  0
 25 26  1  0  0  0
 25 27  2  0  0  0
  8  2  1  0  0  0
 19 12  1  0  0  0
 27 20  1  0  0  0
 11  4  1  0  0  0
M  END
> <minimizedAffinity>
7.97802

> <CNNscore>
0.4185889065

> <CNNaffinity>
7.5385589600

> <CNN_VS>
3.1555571556

> <CNNaffinity_variance>
1.3362228870

$$$$
[H]c1c([H])c(-c2nc(-c3c([H])c(C([H])([H])[H])nc(C([H])([H])[H])c3[H])c3n2C([H])([H])[C@@]([H])(C([H])([H])[H])OC([H])([H])C3([H])[H])c([H])c(Cl)c1Cl


 27 30  0  0  0  0  0  0  0  0999 V2000
   10.9820   43.9193  134.2149 C   0  0  0  0  0  0  0  0  0  0  0  0
   10.2377   44.5016  133.0428 C   0  0  0  0  0  0  0  0  0  0  0  0
   11.1992   45.4571  132.2914 C   0  0  0  0  0  0  0  0  0  0  0  0
   10.4081   46.0253  131.2478 N   0  0  0  0  0  0  0  0  0  0  0  0
    9.3721   46.8851  131.5287 C   0  0  0  0  0  0  0  0  0  0  0  0
    8.8840   47.4325  132.8203 C   0  0  0  0  0  0  0  0  0  0  0  0
    9.1220   46.3555  133.8920 C   0  0  0  0  0  0  0  0  0  0  0  0
    9.0521   45.0943  133.3597 O   0  0  0  0  0  0  0  0  0  0  0  0
    8.7971   47.1958  130.3539 C   0  0  0  0  0  0  0  0  0  0  0  0
    9.4740   46.5394  129.4093 N   0  0  0  0  0  0  0  0  0  0  0  0
   10.4916   45.7983  129.9437 C   0  0  0  0  0  0  0  0  0  0  0  0
   11.3384   44.9511  129.1194 C   0  0  0  0  0  0  0  0  0  0  0  0
   10.9828   44.2336  128.0320 C   0  0  0  0  0  0  0  0  0  0  0  0
   11.9329   43.5236  127.2761 C   0  0  0  0  0  0  0  0  0  0  0  0
   13.2437   43.5376  127.6214 C   0  0  0  0  0  0  0  0  0  0  0  0
   14.4835   42.6701  126.7174 Cl  0  0  0  0  0  0  0  0  0  0  0  0
   13.6544   44.2516  128.7212 C   0  0  0  0  0  0  0  0  0  0  0  0
   15.3559   44.2909  129.1940 Cl  0  0  0  0  0  0  0  0  0  0  0  0
   12.7169   44.9333  129.4393 C   0  0  0  0  0  0  0  0  0  0  0  0
    7.6409   48.0821  130.0896 C   0  0  0  0  0  0  0  0  0  0  0  0
    7.7707   49.4488  130.0463 C   0  0  0  0  0  0  0  0  0  0  0  0
    6.6329   50.1861  129.7928 C   0  0  0  0  0  0  0  0  0  0  0  0
    6.7507   51.6550  129.7421 C   0  0  0  0  0  0  0  0  0  0  0  0
    5.4316   49.6146  129.5925 N   0  0  0  0  0  0  0  0  0  0  0  0
    5.2674   48.2795  129.6277 C   0  0  0  0  0  0  0  0  0  0  0  0
    3.9358   47.6473  129.4056 C   0  0  0  0  0  0  0  0  0  0  0  0
    6.3999   47.5221  129.8812 C   0  0  0  0  0  0  0  0  0  0  0  0
  1  2  1  0  0  0
  2  3  1  0  0  0
  3  4  1  0  0  0
  4  5  1  0  0  0
  5  6  1  0  0  0
  6  7  1  0  0  0
  7  8  1  0  0  0
  5  9  2  0  0  0
  9 10  1  0  0  0
 10 11  2  0  0  0
 11 12  1  0  0  0
 12 13  2  0  0  0
 13 14  1  0  0  0
 14 15  2  0  0  0
 15 16  1  0  0  0
 15 17  1  0  0  0
 17 18  1  0  0  0
 17 19  2  0  0  0
  9 20  1  0  0  0
 20 21  2  0  0  0
 21 22  1  0  0  0
 22 23  1  0  0  0
 22 24  2  0  0  0
 24 25  1  0  0  0
 25 26  1  0  0  0
 25 27  2  0  0  0
  8  2  1  0  0  0
 19 12  1  0  0  0
 27 20  1  0  0  0
 11  4  1  0  0  0
M  END
> <minimizedAffinity>
8.54170

> <CNNscore>
0.4138592482

> <CNNaffinity>
7.6854867935

> <CNN_VS>
3.1807098389

> <CNNaffinity_variance>
1.1487243176

$$$$
[H]c1c([H])c(-c2nc(-c3c([H])c(C([H])([H])[H])nc(C([H])([H])[H])c3[H])c3n2C([H])([H])[C@@]([H])(C([H])([H])[H])OC([H])([H])C3([H])[H])c([H])c(Cl)c1Cl


 27 30  0  0  0  0  0  0  0  0999 V2000
    7.5248   48.5288  127.5592 C   0  0  0  0  0  0  0  0  0  0  0  0
    8.3074   48.0111  128.7365 C   0  0  0  0  0  0  0  0  0  0  0  0
    8.0158   46.4953  128.8765 C   0  0  0  0  0  0  0  0  0  0  0  0
    8.7249   46.0935  130.0485 N   0  0  0  0  0  0  0  0  0  0  0  0
    8.3470   46.5357  131.2948 C   0  0  0  0  0  0  0  0  0  0  0  0
    7.2147   47.3977  131.7201 C   0  0  0  0  0  0  0  0  0  0  0  0
    6.9539   48.4023  130.5853 C   0  0  0  0  0  0  0  0  0  0  0  0
    8.1042   48.6931  129.8988 O   0  0  0  0  0  0  0  0  0  0  0  0
    9.2346   46.0324  132.1701 C   0  0  0  0  0  0  0  0  0  0  0  0
   10.1087   45.3148  131.4612 N   0  0  0  0  0  0  0  0  0  0  0  0
    9.8105   45.3355  130.1267 C   0  0  0  0  0  0  0  0  0  0  0  0
   10.6502   44.6713  129.1427 C   0  0  0  0  0  0  0  0  0  0  0  0
   10.2674   44.0923  127.9844 C   0  0  0  0  0  0  0  0  0  0  0  0
   11.2063   43.5608  127.0821 C   0  0  0  0  0  0  0  0  0  0  0  0
   12.5336   43.6134  127.3524 C   0  0  0  0  0  0  0  0  0  0  0  0
   13.7608   42.9667  126.2648 Cl  0  0  0  0  0  0  0  0  0  0  0  0
   12.9723   44.1910  128.5195 C   0  0  0  0  0  0  0  0  0  0  0  0
   14.6956   44.2766  128.8978 Cl  0  0  0  0  0  0  0  0  0  0  0  0
   12.0452   44.7006  129.3796 C   0  0  0  0  0  0  0  0  0  0  0  0
    9.2900   46.2012  133.6401 C   0  0  0  0  0  0  0  0  0  0  0  0
    8.6902   47.2640  134.2703 C   0  0  0  0  0  0  0  0  0  0  0  0
    8.7992   47.3305  135.6437 C   0  0  0  0  0  0  0  0  0  0  0  0
    8.1623   48.4637  136.3397 C   0  0  0  0  0  0  0  0  0  0  0  0
    9.4609   46.4049  136.3613 N   0  0  0  0  0  0  0  0  0  0  0  0
   10.0603   45.3509  135.7776 C   0  0  0  0  0  0  0  0  0  0  0  0
   10.7933   44.3258  136.5739 C   0  0  0  0  0  0  0  0  0  0  0  0
    9.9613   45.2673  134.3978 C   0  0  0  0  0  0  0  0  0  0  0  0
  1  2  1  0  0  0
  2  3  1  0  0  0
  3  4  1  0  0  0
  4  5  1  0  0  0
  5  6  1  0  0  0
  6  7  1  0  0  0
  7  8  1  0  0  0
  5  9  2  0  0  0
  9 10  1  0  0  0
 10 11  2  0  0  0
 11 12  1  0  0  0
 12 13  2  0  0  0
 13 14  1  0  0  0
 14 15  2  0  0  0
 15 16  1  0  0  0
 15 17  1  0  0  0
 17 18  1  0  0  0
 17 19  2  0  0  0
  9 20  1  0  0  0
 20 21  2  0  0  0
 21 22  1  0  0  0
 22 23  1  0  0  0
 22 24  2  0  0  0
 24 25  1  0  0  0
 25 26  1  0  0  0
 25 27  2  0  0  0
  8  2  1  0  0  0
 19 12  1  0  0  0
 27 20  1  0  0  0
 11  4  1  0  0  0
M  END
> <minimizedAffinity>
15.35529

> <CNNscore>
0.4034064412

> <CNNaffinity>
7.3776769638

> <CNN_VS>
2.9762024879

> <CNNaffinity_variance>
1.9204807281

$$$$
[H]c1c([H])c(-c2nc(-c3c([H])c(C([H])([H])[H])nc(C([H])([H])[H])c3[H])c3n2C([H])([H])[C@@]([H])(C([H])([H])[H])OC([H])([H])C3([H])[H])c([H])c(Cl)c1Cl


 27 30  0  0  0  0  0  0  0  0999 V2000
   11.6034   43.2306  127.5758 C   0  0  0  0  0  0  0  0  0  0  0  0
   11.1587   44.2159  128.6238 C   0  0  0  0  0  0  0  0  0  0  0  0
    9.6981   43.8742  129.0136 C   0  0  0  0  0  0  0  0  0  0  0  0
    9.3222   44.8878  129.9460 N   0  0  0  0  0  0  0  0  0  0  0  0
    9.1746   46.1971  129.5518 C   0  0  0  0  0  0  0  0  0  0  0  0
    9.2970   46.8309  128.2141 C   0  0  0  0  0  0  0  0  0  0  0  0
   10.3708   46.0520  127.4360 C   0  0  0  0  0  0  0  0  0  0  0  0
   11.3159   45.5245  128.2771 O   0  0  0  0  0  0  0  0  0  0  0  0
    8.8753   46.9028  130.6562 C   0  0  0  0  0  0  0  0  0  0  0  0
    8.8467   46.0356  131.6703 N   0  0  0  0  0  0  0  0  0  0  0  0
    9.1223   44.7633  131.2513 C   0  0  0  0  0  0  0  0  0  0  0  0
    9.2042   43.6497  132.1827 C   0  0  0  0  0  0  0  0  0  0  0  0
   10.2904   43.2108  132.8542 C   0  0  0  0  0  0  0  0  0  0  0  0
   10.2025   42.1695  133.7955 C   0  0  0  0  0  0  0  0  0  0  0  0
    9.0150   41.5702  134.0566 C   0  0  0  0  0  0  0  0  0  0  0  0
    8.8369   40.2611  135.2235 Cl  0  0  0  0  0  0  0  0  0  0  0  0
    7.8814   41.9803  133.3971 C   0  0  0  0  0  0  0  0  0  0  0  0
    6.3196   41.2201  133.7183 Cl  0  0  0  0  0  0  0  0  0  0  0  0
    7.9891   42.9918  132.4893 C   0  0  0  0  0  0  0  0  0  0  0  0
    8.6170   48.3545  130.7911 C   0  0  0  0  0  0  0  0  0  0  0  0
    7.7330   49.0123  129.9711 C   0  0  0  0  0  0  0  0  0  0  0  0
    7.5629   50.3654  130.1780 C   0  0  0  0  0  0  0  0  0  0  0  0
    6.6182   51.0904  129.3084 C   0  0  0  0  0  0  0  0  0  0  0  0
    8.2239   51.0381  131.1373 N   0  0  0  0  0  0  0  0  0  0  0  0
    9.0971   50.4264  131.9583 C   0  0  0  0  0  0  0  0  0  0  0  0
    9.8291   51.1729  133.0210 C   0  0  0  0  0  0  0  0  0  0  0  0
    9.2811   49.0664  131.7654 C   0  0  0  0  0  0  0  0  0  0  0  0
  1  2  1  0  0  0
  2  3  1  0  0  0
  3  4  1  0  0  0
  4  5  1  0  0  0
  5  6  1  0  0  0
  6  7  1  0  0  0
  7  8  1  0  0  0
  5  9  2  0  0  0
  9 10  1  0  0  0
 10 11  2  0  0  0
 11 12  1  0  0  0
 12 13  2  0  0  0
 13 14  1  0  0  0
 14 15  2  0  0  0
 15 16  1  0  0  0
 15 17  1  0  0  0
 17 18  1  0  0  0
 17 19  2  0  0  0
  9 20  1  0  0  0
 20 21  2  0  0  0
 21 22  1  0  0  0
 22 23  1  0  0  0
 22 24  2  0  0  0
 24 25  1  0  0  0
 25 26  1  0  0  0
 25 27  2  0  0  0
  8  2  1  0  0  0
 19 12  1  0  0  0
 27 20  1  0  0  0
 11  4  1  0  0  0
M  END
> <minimizedAffinity>
10.41793

> <CNNscore>
0.3979269564

> <CNNaffinity>
7.3265428543

> <CNN_VS>
2.9154288769

> <CNNaffinity_variance>
1.3433333635

$$$$
[H]c1c([H])c(-c2nc(-c3c([H])c(C([H])([H])[H])nc(C([H])([H])[H])c3[H])c3n2C([H])([H])[C@@]([H])(C([H])([H])[H])OC([H])([H])C3([H])[H])c([H])c(Cl)c1Cl


 27 30  0  0  0  0  0  0  0  0999 V2000
   11.7633   47.7361  135.0915 C   0  0  0  0  0  0  0  0  0  0  0  0
   10.6782   47.6260  134.0536 C   0  0  0  0  0  0  0  0  0  0  0  0
   11.3506   47.3486  132.6850 C   0  0  0  0  0  0  0  0  0  0  0  0
   10.2754   47.3335  131.7460 N   0  0  0  0  0  0  0  0  0  0  0  0
    9.5731   48.4785  131.4507 C   0  0  0  0  0  0  0  0  0  0  0  0
    9.7466   49.8761  131.9226 C   0  0  0  0  0  0  0  0  0  0  0  0
   10.2707   49.8089  133.3668 C   0  0  0  0  0  0  0  0  0  0  0  0
    9.8220   48.6855  134.0114 O   0  0  0  0  0  0  0  0  0  0  0  0
    8.6040   48.1269  130.5879 C   0  0  0  0  0  0  0  0  0  0  0  0
    8.7316   46.8146  130.3806 N   0  0  0  0  0  0  0  0  0  0  0  0
    9.7745   46.2923  131.0947 C   0  0  0  0  0  0  0  0  0  0  0  0
   10.0806   44.8709  131.0771 C   0  0  0  0  0  0  0  0  0  0  0  0
   10.7276   44.1757  130.1171 C   0  0  0  0  0  0  0  0  0  0  0  0
   11.0322   42.8117  130.2752 C   0  0  0  0  0  0  0  0  0  0  0  0
   10.6805   42.1497  131.4047 C   0  0  0  0  0  0  0  0  0  0  0  0
   11.0323   40.4423  131.6651 Cl  0  0  0  0  0  0  0  0  0  0  0  0
   10.0186   42.8135  132.4094 C   0  0  0  0  0  0  0  0  0  0  0  0
    9.5499   41.9781  133.8935 Cl  0  0  0  0  0  0  0  0  0  0  0  0
    9.7339   44.1355  132.2357 C   0  0  0  0  0  0  0  0  0  0  0  0
    7.5685   48.9755  129.9555 C   0  0  0  0  0  0  0  0  0  0  0  0
    7.8597   50.2200  129.4525 C   0  0  0  0  0  0  0  0  0  0  0  0
    6.8246   50.9318  128.8830 C   0  0  0  0  0  0  0  0  0  0  0  0
    7.1161   52.2701  128.3370 C   0  0  0  0  0  0  0  0  0  0  0  0
    5.5707   50.4498  128.8103 N   0  0  0  0  0  0  0  0  0  0  0  0
    5.2493   49.2354  129.2925 C   0  0  0  0  0  0  0  0  0  0  0  0
    3.8595   48.7023  129.2115 C   0  0  0  0  0  0  0  0  0  0  0  0
    6.2768   48.5053  129.8686 C   0  0  0  0  0  0  0  0  0  0  0  0
  1  2  1  0  0  0
  2  3  1  0  0  0
  3  4  1  0  0  0
  4  5  1  0  0  0
  5  6  1  0  0  0
  6  7  1  0  0  0
  7  8  1  0  0  0
  5  9  2  0  0  0
  9 10  1  0  0  0
 10 11  2  0  0  0
 11 12  1  0  0  0
 12 13  2  0  0  0
 13 14  1  0  0  0
 14 15  2  0  0  0
 15 16  1  0  0  0
 15 17  1  0  0  0
 17 18  1  0  0  0
 17 19  2  0  0  0
  9 20  1  0  0  0
 20 21  2  0  0  0
 21 22  1  0  0  0
 22 23  1  0  0  0
 22 24  2  0  0  0
 24 25  1  0  0  0
 25 26  1  0  0  0
 25 27  2  0  0  0
  8  2  1  0  0  0
 19 12  1  0  0  0
 27 20  1  0  0  0
 11  4  1  0  0  0
M  END
> <minimizedAffinity>
5.01620

> <CNNscore>
0.3959904313

> <CNNaffinity>
7.7032575607

> <CNN_VS>
3.0504162312

> <CNNaffinity_variance>
1.5956459045

$$$$
[H]c1c([H])c(-c2nc(-c3c([H])c(C([H])([H])[H])nc(C([H])([H])[H])c3[H])c3n2C([H])([H])[C@@]([H])(C([H])([H])[H])OC([H])([H])C3([H])[H])c([H])c(Cl)c1Cl


 27 30  0  0  0  0  0  0  0  0999 V2000
    8.4808   50.9122  130.8830 C   0  0  0  0  0  0  0  0  0  0  0  0
    9.2263   49.6537  131.2398 C   0  0  0  0  0  0  0  0  0  0  0  0
    8.3057   48.4466  130.9277 C   0  0  0  0  0  0  0  0  0  0  0  0
    9.0434   47.3032  131.3594 N   0  0  0  0  0  0  0  0  0  0  0  0
    9.2984   47.0834  132.6929 C   0  0  0  0  0  0  0  0  0  0  0  0
    8.8878   47.8437  133.9009 C   0  0  0  0  0  0  0  0  0  0  0  0
    8.8195   49.3283  133.5051 C   0  0  0  0  0  0  0  0  0  0  0  0
    9.7160   49.6240  132.5113 O   0  0  0  0  0  0  0  0  0  0  0  0
   10.0508   45.9717  132.7654 C   0  0  0  0  0  0  0  0  0  0  0  0
   10.2332   45.5488  131.5126 N   0  0  0  0  0  0  0  0  0  0  0  0
    9.6097   46.3662  130.6107 C   0  0  0  0  0  0  0  0  0  0  0  0
    9.7093   46.1438  129.1772 C   0  0  0  0  0  0  0  0  0  0  0  0
    9.8998   47.0650  128.2083 C   0  0  0  0  0  0  0  0  0  0  0  0
   10.0647   46.6933  126.8619 C   0  0  0  0  0  0  0  0  0  0  0  0
   10.0351   45.3887  126.4947 C   0  0  0  0  0  0  0  0  0  0  0  0
   10.2352   44.8567  124.8262 Cl  0  0  0  0  0  0  0  0  0  0  0  0
    9.8419   44.4145  127.4442 C   0  0  0  0  0  0  0  0  0  0  0  0
    9.8013   42.7063  126.9963 Cl  0  0  0  0  0  0  0  0  0  0  0  0
    9.6850   44.7968  128.7435 C   0  0  0  0  0  0  0  0  0  0  0  0
   10.6011   45.2971  133.9630 C   0  0  0  0  0  0  0  0  0  0  0  0
   11.7582   44.5589  133.9111 C   0  0  0  0  0  0  0  0  0  0  0  0
   12.1877   43.9700  135.0821 C   0  0  0  0  0  0  0  0  0  0  0  0
   13.4278   43.1731  135.0480 C   0  0  0  0  0  0  0  0  0  0  0  0
   11.5188   44.0976  136.2424 N   0  0  0  0  0  0  0  0  0  0  0  0
   10.3824   44.8128  136.3301 C   0  0  0  0  0  0  0  0  0  0  0  0
    9.6419   44.9536  137.6163 C   0  0  0  0  0  0  0  0  0  0  0  0
    9.9353   45.4121  135.1632 C   0  0  0  0  0  0  0  0  0  0  0  0
  1  2  1  0  0  0
  2  3  1  0  0  0
  3  4  1  0  0  0
  4  5  1  0  0  0
  5  6  1  0  0  0
  6  7  1  0  0  0
  7  8  1  0  0  0
  5  9  2  0  0  0
  9 10  1  0  0  0
 10 11  2  0  0  0
 11 12  1  0  0  0
 12 13  2  0  0  0
 13 14  1  0  0  0
 14 15  2  0  0  0
 15 16  1  0  0  0
 15 17  1  0  0  0
 17 18  1  0  0  0
 17 19  2  0  0  0
  9 20  1  0  0  0
 20 21  2  0  0  0
 21 22  1  0  0  0
 22 23  1  0  0  0
 22 24  2  0  0  0
 24 25  1  0  0  0
 25 26  1  0  0  0
 25 27  2  0  0  0
  8  2  1  0  0  0
 19 12  1  0  0  0
 27 20  1  0  0  0
 11  4  1  0  0  0
M  END
> <minimizedAffinity>
20.79102

> <CNNscore>
0.3897125125

> <CNNaffinity>
7.5368361473

> <CNN_VS>
2.9371993542

> <CNNaffinity_variance>
2.9953131676

$$$$
[H]c1c([H])c(-c2nc(-c3c([H])c(C([H])([H])[H])nc(C([H])([H])[H])c3[H])c3n2C([H])([H])[C@@]([H])(C([H])([H])[H])OC([H])([H])C3([H])[H])c([H])c(Cl)c1Cl


 27 30  0  0  0  0  0  0  0  0999 V2000
   13.5809   44.1941  128.9198 C   0  0  0  0  0  0  0  0  0  0  0  0
   12.4208   44.9298  129.5360 C   0  0  0  0  0  0  0  0  0  0  0  0
   11.3854   43.8791  130.0117 C   0  0  0  0  0  0  0  0  0  0  0  0
   10.2895   44.6460  130.5105 N   0  0  0  0  0  0  0  0  0  0  0  0
    9.5082   45.4014  129.6675 C   0  0  0  0  0  0  0  0  0  0  0  0
    9.5470   45.5679  128.1921 C   0  0  0  0  0  0  0  0  0  0  0  0
   11.0176   45.4501  127.7576 C   0  0  0  0  0  0  0  0  0  0  0  0
   11.8674   45.8876  128.7401 O   0  0  0  0  0  0  0  0  0  0  0  0
    8.6104   46.0389  130.4388 C   0  0  0  0  0  0  0  0  0  0  0  0
    8.8548   45.6699  131.6980 N   0  0  0  0  0  0  0  0  0  0  0  0
    9.9031   44.7946  131.7705 C   0  0  0  0  0  0  0  0  0  0  0  0
   10.3955   44.2912  133.0428 C   0  0  0  0  0  0  0  0  0  0  0  0
   11.2494   43.2663  133.2524 C   0  0  0  0  0  0  0  0  0  0  0  0
   11.7096   42.9441  134.5417 C   0  0  0  0  0  0  0  0  0  0  0  0
   11.3044   43.6580  135.6205 C   0  0  0  0  0  0  0  0  0  0  0  0
   11.8434   43.3064  137.2615 Cl  0  0  0  0  0  0  0  0  0  0  0  0
   10.4343   44.7090  135.4584 C   0  0  0  0  0  0  0  0  0  0  0  0
    9.8908   45.6592  136.8448 Cl  0  0  0  0  0  0  0  0  0  0  0  0
   10.0012   45.0046  134.1998 C   0  0  0  0  0  0  0  0  0  0  0  0
    7.5378   46.9770  130.0366 C   0  0  0  0  0  0  0  0  0  0  0  0
    6.2288   46.5759  129.9253 C   0  0  0  0  0  0  0  0  0  0  0  0
    5.3048   47.5263  129.5439 C   0  0  0  0  0  0  0  0  0  0  0  0
    3.8940   47.1163  129.4185 C   0  0  0  0  0  0  0  0  0  0  0  0
    5.6453   48.8018  129.2852 N   0  0  0  0  0  0  0  0  0  0  0  0
    6.9173   49.2296  129.3839 C   0  0  0  0  0  0  0  0  0  0  0  0
    7.2935   50.6432  129.0969 C   0  0  0  0  0  0  0  0  0  0  0  0
    7.8600   48.2884  129.7660 C   0  0  0  0  0  0  0  0  0  0  0  0
  1  2  1  0  0  0
  2  3  1  0  0  0
  3  4  1  0  0  0
  4  5  1  0  0  0
  5  6  1  0  0  0
  6  7  1  0  0  0
  7  8  1  0  0  0
  5  9  2  0  0  0
  9 10  1  0  0  0
 10 11  2  0  0  0
 11 12  1  0  0  0
 12 13  2  0  0  0
 13 14  1  0  0  0
 14 15  2  0  0  0
 15 16  1  0  0  0
 15 17  1  0  0  0
 17 18  1  0  0  0
 17 19  2  0  0  0
  9 20  1  0  0  0
 20 21  2  0  0  0
 21 22  1  0  0  0
 22 23  1  0  0  0
 22 24  2  0  0  0
 24 25  1  0  0  0
 25 26  1  0  0  0
 25 27  2  0  0  0
  8  2  1  0  0  0
 19 12  1  0  0  0
 27 20  1  0  0  0
 11  4  1  0  0  0
M  END
> <minimizedAffinity>
3.82720

> <CNNscore>
0.3846616447

> <CNNaffinity>
7.7851018906

> <CNN_VS>
2.9946300983

> <CNNaffinity_variance>
1.8818063736

$$$$
[H]c1c([H])c(-c2nc(-c3c([H])c(C([H])([H])[H])nc(C([H])([H])[H])c3[H])c3n2C([H])([H])[C@@]([H])(C([H])([H])[H])OC([H])([H])C3([H])[H])c([H])c(Cl)c1Cl


 27 30  0  0  0  0  0  0  0  0999 V2000
   13.6474   44.1518  128.8849 C   0  0  0  0  0  0  0  0  0  0  0  0
   12.5078   44.9161  129.5047 C   0  0  0  0  0  0  0  0  0  0  0  0
   11.4443   43.8919  129.9761 C   0  0  0  0  0  0  0  0  0  0  0  0
   10.3697   44.6861  130.4786 N   0  0  0  0  0  0  0  0  0  0  0  0
    9.6091   45.4661  129.6392 C   0  0  0  0  0  0  0  0  0  0  0  0
    9.6521   45.6379  128.1645 C   0  0  0  0  0  0  0  0  0  0  0  0
   11.1188   45.4820  127.7290 C   0  0  0  0  0  0  0  0  0  0  0  0
   11.9804   45.8921  128.7131 O   0  0  0  0  0  0  0  0  0  0  0  0
    8.7291   46.1244  130.4135 C   0  0  0  0  0  0  0  0  0  0  0  0
    8.9637   45.7435  131.6710 N   0  0  0  0  0  0  0  0  0  0  0  0
    9.9878   44.8397  131.7394 C   0  0  0  0  0  0  0  0  0  0  0  0
   10.4666   44.3176  133.0093 C   0  0  0  0  0  0  0  0  0  0  0  0
   11.3305   43.2998  133.2125 C   0  0  0  0  0  0  0  0  0  0  0  0
   11.7745   42.9581  134.5025 C   0  0  0  0  0  0  0  0  0  0  0  0
   11.3430   43.6453  135.5884 C   0  0  0  0  0  0  0  0  0  0  0  0
   11.8605   43.2683  137.2306 Cl  0  0  0  0  0  0  0  0  0  0  0  0
   10.4617   44.6881  135.4330 C   0  0  0  0  0  0  0  0  0  0  0  0
    9.8840   45.6036  136.8288 Cl  0  0  0  0  0  0  0  0  0  0  0  0
   10.0448   45.0029  134.1736 C   0  0  0  0  0  0  0  0  0  0  0  0
    7.6823   47.0930  130.0157 C   0  0  0  0  0  0  0  0  0  0  0  0
    7.9755   48.4084  129.7507 C   0  0  0  0  0  0  0  0  0  0  0  0
    6.9292   49.2306  129.3877 C   0  0  0  0  0  0  0  0  0  0  0  0
    7.2226   50.6464  129.0989 C   0  0  0  0  0  0  0  0  0  0  0  0
    5.6628   48.7873  129.2896 N   0  0  0  0  0  0  0  0  0  0  0  0
    5.3391   47.5057  129.5418 C   0  0  0  0  0  0  0  0  0  0  0  0
    3.9355   47.0156  129.4329 C   0  0  0  0  0  0  0  0  0  0  0  0
    6.3778   46.6645  129.9081 C   0  0  0  0  0  0  0  0  0  0  0  0
  1  2  1  0  0  0
  2  3  1  0  0  0
  3  4  1  0  0  0
  4  5  1  0  0  0
  5  6  1  0  0  0
  6  7  1  0  0  0
  7  8  1  0  0  0
  5  9  2  0  0  0
  9 10  1  0  0  0
 10 11  2  0  0  0
 11 12  1  0  0  0
 12 13  2  0  0  0
 13 14  1  0  0  0
 14 15  2  0  0  0
 15 16  1  0  0  0
 15 17  1  0  0  0
 17 18  1  0  0  0
 17 19  2  0  0  0
  9 20  1  0  0  0
 20 21  2  0  0  0
 21 22  1  0  0  0
 22 23  1  0  0  0
 22 24  2  0  0  0
 24 25  1  0  0  0
 25 26  1  0  0  0
 25 27  2  0  0  0
  8  2  1  0  0  0
 19 12  1  0  0  0
 27 20  1  0  0  0
 11  4  1  0  0  0
M  END
> <minimizedAffinity>
3.67348

> <CNNscore>
0.3843067288

> <CNNaffinity>
7.8302841187

> <CNN_VS>
3.0092308521

> <CNNaffinity_variance>
2.0635836124

$$$$
[H]/C(C(=O)N([H])c1c(OC([H])([H])C([H])([H])[H])c([H])c2nc([H])c(C#N)c(N([H])c3c([H])c([H])c(OC([H])([H])c4c([H])c([H])c([H])c([H])c4[H])c(Cl)c3[H])c2c1[H])=C(/[H])C([H])([H])N1C([H])([H])C([H])([H])C([H])([H])C([H])([H])C1([H])[H]


 45 49  0  0  0  0  0  0  0  0999 V2000
   11.3004   47.9505  134.4499 C   0  0  0  0  0  0  0  0  0  0  0  0
   11.0640   49.0473  133.6793 C   0  0  0  0  0  0  0  0  0  0  0  0
   10.0042   49.0893  132.7680 C   0  0  0  0  0  0  0  0  0  0  0  0
    9.7915   50.1854  132.0189 N   0  0  0  0  0  0  0  0  0  0  0  0
    8.7588   50.2329  131.1280 C   0  0  0  0  0  0  0  0  0  0  0  0
    7.8948   49.1779  130.9524 C   0  0  0  0  0  0  0  0  0  0  0  0
    8.1261   48.0474  131.7350 C   0  0  0  0  0  0  0  0  0  0  0  0
    9.1680   48.0058  132.6309 C   0  0  0  0  0  0  0  0  0  0  0  0
    9.4405   46.8949  133.4387 C   0  0  0  0  0  0  0  0  0  0  0  0
   10.4646   46.8234  134.3359 C   0  0  0  0  0  0  0  0  0  0  0  0
   10.7417   45.7121  135.1588 N   0  0  0  0  0  0  0  0  0  0  0  0
   11.5761   44.6388  134.9110 C   0  0  0  0  0  0  0  0  0  0  0  0
   12.2299   44.5303  133.8458 O   0  0  0  0  0  0  0  0  0  0  0  0
   10.2378   45.6901  136.1100 H   0  0  0  0  0  0  0  0  0  0  0  0
   11.7603   43.5505  135.8673 C   0  0  0  0  0  0  0  0  0  0  0  0
   12.8271   43.3674  136.5780 C   0  0  0  0  0  0  0  0  0  0  0  0
   12.9791   42.2351  137.5514 C   0  0  0  0  0  0  0  0  0  0  0  0
   14.3714   42.0555  137.8675 N   0  0  0  0  0  0  0  0  0  0  0  0
   14.8495   42.8345  138.9640 C   0  0  0  0  0  0  0  0  0  0  0  0
   16.3614   42.9952  138.7997 C   0  0  0  0  0  0  0  0  0  0  0  0
   16.9557   41.7117  138.2260 C   0  0  0  0  0  0  0  0  0  0  0  0
   16.0872   40.5462  138.6422 C   0  0  0  0  0  0  0  0  0  0  0  0
   14.6920   40.6573  138.1286 C   0  0  0  0  0  0  0  0  0  0  0  0
    6.8062   49.1894  130.0337 C   0  0  0  0  0  0  0  0  0  0  0  0
    5.9222   49.1835  129.2742 N   0  0  0  0  0  0  0  0  0  0  0  0
    7.2676   46.9320  131.5936 N   0  0  0  0  0  0  0  0  0  0  0  0
    6.2512   47.0971  131.7370 H   0  0  0  0  0  0  0  0  0  0  0  0
    7.6659   45.6327  131.2788 C   0  0  0  0  0  0  0  0  0  0  0  0
    7.7003   45.2117  129.9861 C   0  0  0  0  0  0  0  0  0  0  0  0
    8.0948   43.9367  129.6794 C   0  0  0  0  0  0  0  0  0  0  0  0
    8.4727   43.0246  130.6501 C   0  0  0  0  0  0  0  0  0  0  0  0
    8.4234   43.4908  131.9482 C   0  0  0  0  0  0  0  0  0  0  0  0
    8.8967   42.3540  133.2181 Cl  0  0  0  0  0  0  0  0  0  0  0  0
    8.0306   44.7645  132.2706 C   0  0  0  0  0  0  0  0  0  0  0  0
    8.8714   41.7321  130.3180 O   0  0  0  0  0  0  0  0  0  0  0  0
   10.1390   41.5711  129.7045 C   0  0  0  0  0  0  0  0  0  0  0  0
   10.7864   42.8809  129.4705 C   0  0  0  0  0  0  0  0  0  0  0  0
   11.5639   43.4143  130.4704 C   0  0  0  0  0  0  0  0  0  0  0  0
   12.1893   44.6259  130.3118 C   0  0  0  0  0  0  0  0  0  0  0  0
   12.0327   45.3062  129.1414 C   0  0  0  0  0  0  0  0  0  0  0  0
   11.2541   44.8087  128.0954 C   0  0  0  0  0  0  0  0  0  0  0  0
   10.6396   43.5797  128.2983 C   0  0  0  0  0  0  0  0  0  0  0  0
   12.3289   47.9105  135.3317 O   0  0  0  0  0  0  0  0  0  0  0  0
   14.1557   48.7316  136.7383 C   0  0  0  0  0  0  0  0  0  0  0  0
   12.8183   48.9361  136.1051 C   0  0  0  0  0  0  0  0  0  0  0  0
 44 45  1  0  0  0
 45 43  1  0  0  0
 43  1  1  0  0  0
  1  2  2  0  0  0
  2  3  1  0  0  0
  3  4  2  0  0  0
  4  5  1  0  0  0
  5  6  2  0  0  0
  6 24  1  0  0  0
 24 25  3  0  0  0
  6  7  1  0  0  0
  7 26  1  0  0  0
 26 28  1  0  0  0
 28 29  2  0  0  0
 29 30  1  0  0  0
 30 31  2  0  0  0
 31 35  1  0  0  0
 35 36  1  0  0  0
 36 37  1  0  0  0
 37 38  2  0  0  0
 38 39  1  0  0  0
 39 40  2  0  0  0
 40 41  1  0  0  0
 41 42  2  0  0  0
 31 32  1  0  0  0
 32 33  1  0  0  0
 32 34  2  0  0  0
  7  8  2  0  0  0
  8  9  1  0  0  0
  9 10  2  0  0  0
 10 11  1  0  0  0
 11 12  1  0  0  0
 12 13  2  0  0  0
 12 15  1  0  0  0
 15 16  2  0  0  0
 16 17  1  0  0  0
 17 18  1  0  0  0
 18 19  1  0  0  0
 19 20  1  0  0  0
 20 21  1  0  0  0
 21 22  1  0  0  0
 22 23  1  0  0  0
 10  1  1  0  0  0
 23 18  1  0  0  0
  8  3  1  0  0  0
 34 28  1  0  0  0
 42 37  1  0  0  0
 26 27  1  0  0  0
 11 14  1  0  0  0
M  END
> <minimizedAffinity>
15.31842

> <CNNscore>
0.4669922292

> <CNNaffinity>
8.3761720657

> <CNN_VS>
3.9116072655

> <CNNaffinity_variance>
0.3218554556

$$$$
[H]/C(C(=O)N([H])c1c(OC([H])([H])C([H])([H])[H])c([H])c2nc([H])c(C#N)c(N([H])c3c([H])c([H])c(OC([H])([H])c4c([H])c([H])c([H])c([H])c4[H])c(Cl)c3[H])c2c1[H])=C(/[H])C([H])([H])N1C([H])([H])C([H])([H])C([H])([H])C([H])([H])C1([H])[H]


 45 49  0  0  0  0  0  0  0  0999 V2000
    9.6033   46.5405  127.3880 C   0  0  0  0  0  0  0  0  0  0  0  0
    9.8108   45.2027  127.2464 C   0  0  0  0  0  0  0  0  0  0  0  0
    9.3818   44.2873  128.2125 C   0  0  0  0  0  0  0  0  0  0  0  0
    9.5982   42.9704  128.0484 N   0  0  0  0  0  0  0  0  0  0  0  0
    9.1818   42.0718  128.9872 C   0  0  0  0  0  0  0  0  0  0  0  0
    8.5289   42.4604  130.1332 C   0  0  0  0  0  0  0  0  0  0  0  0
    8.3107   43.8284  130.2915 C   0  0  0  0  0  0  0  0  0  0  0  0
    8.7324   44.7286  129.3419 C   0  0  0  0  0  0  0  0  0  0  0  0
    8.5363   46.1105  129.4551 C   0  0  0  0  0  0  0  0  0  0  0  0
    8.9420   47.0276  128.5314 C   0  0  0  0  0  0  0  0  0  0  0  0
    8.7419   48.4199  128.6334 N   0  0  0  0  0  0  0  0  0  0  0  0
    7.5882   49.1064  128.9609 C   0  0  0  0  0  0  0  0  0  0  0  0
    6.5118   48.5194  129.2263 O   0  0  0  0  0  0  0  0  0  0  0  0
    9.5997   49.0377  128.4288 H   0  0  0  0  0  0  0  0  0  0  0  0
    7.5331   50.5645  129.0228 C   0  0  0  0  0  0  0  0  0  0  0  0
    7.2563   51.3341  128.0189 C   0  0  0  0  0  0  0  0  0  0  0  0
    7.2097   52.8308  128.1220 C   0  0  0  0  0  0  0  0  0  0  0  0
    7.1372   53.4022  126.8034 N   0  0  0  0  0  0  0  0  0  0  0  0
    6.2935   54.5476  126.6846 C   0  0  0  0  0  0  0  0  0  0  0  0
    5.8608   54.6603  125.2222 C   0  0  0  0  0  0  0  0  0  0  0  0
    7.0110   54.2389  124.3115 C   0  0  0  0  0  0  0  0  0  0  0  0
    8.3176   54.5180  125.0191 C   0  0  0  0  0  0  0  0  0  0  0  0
    8.4564   53.7537  126.2917 C   0  0  0  0  0  0  0  0  0  0  0  0
    8.0791   41.5536  131.1354 C   0  0  0  0  0  0  0  0  0  0  0  0
    7.7212   40.8205  131.9678 N   0  0  0  0  0  0  0  0  0  0  0  0
    7.6443   44.2833  131.4534 N   0  0  0  0  0  0  0  0  0  0  0  0
    6.6270   44.0811  131.5241 H   0  0  0  0  0  0  0  0  0  0  0  0
    8.2329   44.9780  132.5103 C   0  0  0  0  0  0  0  0  0  0  0  0
    7.6584   46.1077  133.0033 C   0  0  0  0  0  0  0  0  0  0  0  0
    8.2366   46.7861  134.0429 C   0  0  0  0  0  0  0  0  0  0  0  0
    9.4148   46.3667  134.6370 C   0  0  0  0  0  0  0  0  0  0  0  0
    9.9655   45.2173  134.1073 C   0  0  0  0  0  0  0  0  0  0  0  0
   11.4732   44.6501  134.8380 Cl  0  0  0  0  0  0  0  0  0  0  0  0
    9.3982   44.5275  133.0668 C   0  0  0  0  0  0  0  0  0  0  0  0
    9.9873   47.0703  135.6939 O   0  0  0  0  0  0  0  0  0  0  0  0
   10.7492   48.2238  135.3810 C   0  0  0  0  0  0  0  0  0  0  0  0
   10.5580   48.6200  133.9682 C   0  0  0  0  0  0  0  0  0  0  0  0
    9.8587   49.7726  133.7009 C   0  0  0  0  0  0  0  0  0  0  0  0
    9.6487   50.1909  132.4105 C   0  0  0  0  0  0  0  0  0  0  0  0
   10.1441   49.4469  131.3819 C   0  0  0  0  0  0  0  0  0  0  0  0
   10.8607   48.2691  131.5994 C   0  0  0  0  0  0  0  0  0  0  0  0
   11.0499   47.8828  132.9202 C   0  0  0  0  0  0  0  0  0  0  0  0
   10.0209   47.4269  126.4517 O   0  0  0  0  0  0  0  0  0  0  0  0
    9.7644   48.2232  124.1517 C   0  0  0  0  0  0  0  0  0  0  0  0
   10.2586   47.1965  125.1175 C   0  0  0  0  0  0  0  0  0  0  0  0
 44 45  1  0  0  0
 45 43  1  0  0  0
 43  1  1  0  0  0
  1  2  2  0  0  0
  2  3  1  0  0  0
  3  4  2  0  0  0
  4  5  1  0  0  0
  5  6  2  0  0  0
  6 24  1  0  0  0
 24 25  3  0  0  0
  6  7  1  0  0  0
  7 26  1  0  0  0
 26 28  1  0  0  0
 28 29  2  0  0  0
 29 30  1  0  0  0
 30 31  2  0  0  0
 31 35  1  0  0  0
 35 36  1  0  0  0
 36 37  1  0  0  0
 37 38  2  0  0  0
 38 39  1  0  0  0
 39 40  2  0  0  0
 40 41  1  0  0  0
 41 42  2  0  0  0
 31 32  1  0  0  0
 32 33  1  0  0  0
 32 34  2  0  0  0
  7  8  2  0  0  0
  8  9  1  0  0  0
  9 10  2  0  0  0
 10 11  1  0  0  0
 11 12  1  0  0  0
 12 13  2  0  0  0
 12 15  1  0  0  0
 15 16  2  0  0  0
 16 17  1  0  0  0
 17 18  1  0  0  0
 18 19  1  0  0  0
 19 20  1  0  0  0
 20 21  1  0  0  0
 21 22  1  0  0  0
 22 23  1  0  0  0
 10  1  1  0  0  0
 23 18  1  0  0  0
  8  3  1  0  0  0
 34 28  1  0  0  0
 42 37  1  0  0  0
 26 27  1  0  0  0
 11 14  1  0  0  0
M  END
> <minimizedAffinity>
17.63422

> <CNNscore>
0.4217433929

> <CNNaffinity>
7.7335662842

> <CNN_VS>
3.2615804672

> <CNNaffinity_variance>
0.2049188614

$$$$
[H]/C(C(=O)N([H])c1c(OC([H])([H])C([H])([H])[H])c([H])c2nc([H])c(C#N)c(N([H])c3c([H])c([H])c(OC([H])([H])c4c([H])c([H])c([H])c([H])c4[H])c(Cl)c3[H])c2c1[H])=C(/[H])C([H])([H])N1C([H])([H])C([H])([H])C([H])([H])C([H])([H])C1([H])[H]


 45 49  0  0  0  0  0  0  0  0999 V2000
    9.6658   49.7116  132.9742 C   0  0  0  0  0  0  0  0  0  0  0  0
   10.4286   48.8766  133.7315 C   0  0  0  0  0  0  0  0  0  0  0  0
   10.3432   47.4867  133.6040 C   0  0  0  0  0  0  0  0  0  0  0  0
   11.1086   46.6834  134.3635 N   0  0  0  0  0  0  0  0  0  0  0  0
   11.0303   45.3263  134.2437 C   0  0  0  0  0  0  0  0  0  0  0  0
   10.1771   44.7184  133.3532 C   0  0  0  0  0  0  0  0  0  0  0  0
    9.3889   45.5622  132.5716 C   0  0  0  0  0  0  0  0  0  0  0  0
    9.4727   46.9286  132.6969 C   0  0  0  0  0  0  0  0  0  0  0  0
    8.7035   47.8168  131.9350 C   0  0  0  0  0  0  0  0  0  0  0  0
    8.7640   49.1751  132.0357 C   0  0  0  0  0  0  0  0  0  0  0  0
    7.9990   50.0771  131.2674 N   0  0  0  0  0  0  0  0  0  0  0  0
    8.2475   50.5571  129.9956 C   0  0  0  0  0  0  0  0  0  0  0  0
    9.2571   50.2134  129.3351 O   0  0  0  0  0  0  0  0  0  0  0  0
    7.0987   50.4463  131.7282 H   0  0  0  0  0  0  0  0  0  0  0  0
    7.3565   51.4996  129.3242 C   0  0  0  0  0  0  0  0  0  0  0  0
    7.5499   51.9774  128.1364 C   0  0  0  0  0  0  0  0  0  0  0  0
    6.6101   52.9458  127.4794 C   0  0  0  0  0  0  0  0  0  0  0  0
    7.2275   53.4907  126.2994 N   0  0  0  0  0  0  0  0  0  0  0  0
    7.8518   52.5329  125.4445 C   0  0  0  0  0  0  0  0  0  0  0  0
    8.9150   53.2625  124.6224 C   0  0  0  0  0  0  0  0  0  0  0  0
    8.4194   54.6615  124.2662 C   0  0  0  0  0  0  0  0  0  0  0  0
    6.9091   54.6396  124.2015 C   0  0  0  0  0  0  0  0  0  0  0  0
    6.2839   54.2653  125.5023 C   0  0  0  0  0  0  0  0  0  0  0  0
   10.0668   43.3066  133.1988 C   0  0  0  0  0  0  0  0  0  0  0  0
    9.9586   42.1534  133.0696 N   0  0  0  0  0  0  0  0  0  0  0  0
    8.4922   44.9892  131.6395 N   0  0  0  0  0  0  0  0  0  0  0  0
    7.4787   45.1648  131.7898 H   0  0  0  0  0  0  0  0  0  0  0  0
    8.8498   44.2109  130.5384 C   0  0  0  0  0  0  0  0  0  0  0  0
    8.4307   42.9213  130.4351 C   0  0  0  0  0  0  0  0  0  0  0  0
    8.7804   42.1603  129.3517 C   0  0  0  0  0  0  0  0  0  0  0  0
    9.5646   42.6531  128.3224 C   0  0  0  0  0  0  0  0  0  0  0  0
    9.9691   43.9648  128.4657 C   0  0  0  0  0  0  0  0  0  0  0  0
   10.9750   44.6308  127.1720 Cl  0  0  0  0  0  0  0  0  0  0  0  0
    9.6269   44.7390  129.5446 C   0  0  0  0  0  0  0  0  0  0  0  0
    9.9093   41.8633  127.2283 O   0  0  0  0  0  0  0  0  0  0  0  0
   10.1756   40.4913  127.4644 C   0  0  0  0  0  0  0  0  0  0  0  0
   10.2545   39.7385  126.1930 C   0  0  0  0  0  0  0  0  0  0  0  0
    9.1281   39.6579  125.4096 C   0  0  0  0  0  0  0  0  0  0  0  0
    9.1400   38.9731  124.2199 C   0  0  0  0  0  0  0  0  0  0  0  0
   10.2904   38.3654  123.8145 C   0  0  0  0  0  0  0  0  0  0  0  0
   11.4609   38.4172  124.5729 C   0  0  0  0  0  0  0  0  0  0  0  0
   11.4045   39.1205  125.7694 C   0  0  0  0  0  0  0  0  0  0  0  0
    9.7485   51.0585  133.0999 O   0  0  0  0  0  0  0  0  0  0  0  0
    9.8866   53.0001  134.5834 C   0  0  0  0  0  0  0  0  0  0  0  0
    9.1059   51.8625  134.0110 C   0  0  0  0  0  0  0  0  0  0  0  0
 44 45  1  0  0  0
 45 43  1  0  0  0
 43  1  1  0  0  0
  1  2  2  0  0  0
  2  3  1  0  0  0
  3  4  2  0  0  0
  4  5  1  0  0  0
  5  6  2  0  0  0
  6 24  1  0  0  0
 24 25  3  0  0  0
  6  7  1  0  0  0
  7 26  1  0  0  0
 26 28  1  0  0  0
 28 29  2  0  0  0
 29 30  1  0  0  0
 30 31  2  0  0  0
 31 35  1  0  0  0
 35 36  1  0  0  0
 36 37  1  0  0  0
 37 38  2  0  0  0
 38 39  1  0  0  0
 39 40  2  0  0  0
 40 41  1  0  0  0
 41 42  2  0  0  0
 31 32  1  0  0  0
 32 33  1  0  0  0
 32 34  2  0  0  0
  7  8  2  0  0  0
  8  9  1  0  0  0
  9 10  2  0  0  0
 10 11  1  0  0  0
 11 12  1  0  0  0
 12 13  2  0  0  0
 12 15  1  0  0  0
 15 16  2  0  0  0
 16 17  1  0  0  0
 17 18  1  0  0  0
 18 19  1  0  0  0
 19 20  1  0  0  0
 20 21  1  0  0  0
 21 22  1  0  0  0
 22 23  1  0  0  0
 10  1  1  0  0  0
 23 18  1  0  0  0
  8  3  1  0  0  0
 34 28  1  0  0  0
 42 37  1  0  0  0
 26 27  1  0  0  0
 11 14  1  0  0  0
M  END
> <minimizedAffinity>
21.39222

> <CNNscore>
0.3536761105

> <CNNaffinity>
7.6859331131

> <CNN_VS>
2.7183308601

> <CNNaffinity_variance>
0.4181381762

$$$$
[H]/C(C(=O)N([H])c1c(OC([H])([H])C([H])([H])[H])c([H])c2nc([H])c(C#N)c(N([H])c3c([H])c([H])c(OC([H])([H])c4c([H])c([H])c([H])c([H])c4[H])c(Cl)c3[H])c2c1[H])=C(/[H])C([H])([H])N1C([H])([H])C([H])([H])C([H])([H])C([H])([H])C1([H])[H]


 45 49  0  0  0  0  0  0  0  0999 V2000
    8.9991   50.3993  132.2227 C   0  0  0  0  0  0  0  0  0  0  0  0
    9.1234   49.4651  133.2047 C   0  0  0  0  0  0  0  0  0  0  0  0
    8.9392   48.1027  132.9491 C   0  0  0  0  0  0  0  0  0  0  0  0
    9.0687   47.1995  133.9368 N   0  0  0  0  0  0  0  0  0  0  0  0
    8.8906   45.8685  133.6938 C   0  0  0  0  0  0  0  0  0  0  0  0
    8.5741   45.3886  132.4448 C   0  0  0  0  0  0  0  0  0  0  0  0
    8.4428   46.3351  131.4294 C   0  0  0  0  0  0  0  0  0  0  0  0
    8.6237   47.6746  131.6806 C   0  0  0  0  0  0  0  0  0  0  0  0
    8.5034   48.6623  130.6952 C   0  0  0  0  0  0  0  0  0  0  0  0
    8.6769   49.9970  130.9126 C   0  0  0  0  0  0  0  0  0  0  0  0
    8.5654   50.9976  129.9251 N   0  0  0  0  0  0  0  0  0  0  0  0
    7.4560   51.3661  129.1882 C   0  0  0  0  0  0  0  0  0  0  0  0
    6.3412   50.8090  129.3316 O   0  0  0  0  0  0  0  0  0  0  0  0
    9.4625   51.5530  129.7105 H   0  0  0  0  0  0  0  0  0  0  0  0
    7.4957   52.4296  128.1880 C   0  0  0  0  0  0  0  0  0  0  0  0
    6.5399   53.2770  127.9759 C   0  0  0  0  0  0  0  0  0  0  0  0
    6.6179   54.3574  126.9369 C   0  0  0  0  0  0  0  0  0  0  0  0
    7.2875   53.8531  125.7674 N   0  0  0  0  0  0  0  0  0  0  0  0
    6.6897   54.2160  124.5228 C   0  0  0  0  0  0  0  0  0  0  0  0
    7.1122   53.1792  123.4810 C   0  0  0  0  0  0  0  0  0  0  0  0
    8.5513   52.7434  123.7433 C   0  0  0  0  0  0  0  0  0  0  0  0
    9.2873   53.8791  124.4173 C   0  0  0  0  0  0  0  0  0  0  0  0
    8.6898   54.2508  125.7317 C   0  0  0  0  0  0  0  0  0  0  0  0
    8.3808   44.0081  132.1517 C   0  0  0  0  0  0  0  0  0  0  0  0
    8.2277   42.8817  131.8945 N   0  0  0  0  0  0  0  0  0  0  0  0
    8.1168   45.8960  130.1248 N   0  0  0  0  0  0  0  0  0  0  0  0
    7.2329   46.2558  129.7125 H   0  0  0  0  0  0  0  0  0  0  0  0
    8.8772   45.0240  129.3455 C   0  0  0  0  0  0  0  0  0  0  0  0
    8.2808   44.0314  128.6325 C   0  0  0  0  0  0  0  0  0  0  0  0
    9.0292   43.1787  127.8657 C   0  0  0  0  0  0  0  0  0  0  0  0
   10.4073   43.2789  127.7766 C   0  0  0  0  0  0  0  0  0  0  0  0
   10.9732   44.2982  128.5152 C   0  0  0  0  0  0  0  0  0  0  0  0
   12.7329   44.4577  128.4295 Cl  0  0  0  0  0  0  0  0  0  0  0  0
   10.2369   45.1596  129.2873 C   0  0  0  0  0  0  0  0  0  0  0  0
   11.1512   42.4020  126.9907 O   0  0  0  0  0  0  0  0  0  0  0  0
   10.5463   41.1746  126.6209 C   0  0  0  0  0  0  0  0  0  0  0  0
   11.5640   40.1855  126.2017 C   0  0  0  0  0  0  0  0  0  0  0  0
   11.5050   38.9202  126.7350 C   0  0  0  0  0  0  0  0  0  0  0  0
   12.4216   37.9602  126.3848 C   0  0  0  0  0  0  0  0  0  0  0  0
   13.4037   38.2731  125.4934 C   0  0  0  0  0  0  0  0  0  0  0  0
   13.5077   39.5428  124.9232 C   0  0  0  0  0  0  0  0  0  0  0  0
   12.5598   40.4834  125.3054 C   0  0  0  0  0  0  0  0  0  0  0  0
    9.1763   51.7197  132.4721 O   0  0  0  0  0  0  0  0  0  0  0  0
    8.9752   52.6740  134.7168 C   0  0  0  0  0  0  0  0  0  0  0  0
    9.8172   52.2982  133.5416 C   0  0  0  0  0  0  0  0  0  0  0  0
 44 45  1  0  0  0
 45 43  1  0  0  0
 43  1  1  0  0  0
  1  2  2  0  0  0
  2  3  1  0  0  0
  3  4  2  0  0  0
  4  5  1  0  0  0
  5  6  2  0  0  0
  6 24  1  0  0  0
 24 25  3  0  0  0
  6  7  1  0  0  0
  7 26  1  0  0  0
 26 28  1  0  0  0
 28 29  2  0  0  0
 29 30  1  0  0  0
 30 31  2  0  0  0
 31 35  1  0  0  0
 35 36  1  0  0  0
 36 37  1  0  0  0
 37 38  2  0  0  0
 38 39  1  0  0  0
 39 40  2  0  0  0
 40 41  1  0  0  0
 41 42  2  0  0  0
 31 32  1  0  0  0
 32 33  1  0  0  0
 32 34  2  0  0  0
  7  8  2  0  0  0
  8  9  1  0  0  0
  9 10  2  0  0  0
 10 11  1  0  0  0
 11 12  1  0  0  0
 12 13  2  0  0  0
 12 15  1  0  0  0
 15 16  2  0  0  0
 16 17  1  0  0  0
 17 18  1  0  0  0
 18 19  1  0  0  0
 19 20  1  0  0  0
 20 21  1  0  0  0
 21 22  1  0  0  0
 22 23  1  0  0  0
 10  1  1  0  0  0
 23 18  1  0  0  0
  8  3  1  0  0  0
 34 28  1  0  0  0
 42 37  1  0  0  0
 26 27  1  0  0  0
 11 14  1  0  0  0
M  END
> <minimizedAffinity>
20.90345

> <CNNscore>
0.3496597707

> <CNNaffinity>
7.7305154800

> <CNN_VS>
2.7030503750

> <CNNaffinity_variance>
0.3166025281

$$$$
[H]/C(C(=O)N([H])c1c(OC([H])([H])C([H])([H])[H])c([H])c2nc([H])c(C#N)c(N([H])c3c([H])c([H])c(OC([H])([H])c4c([H])c([H])c([H])c([H])c4[H])c(Cl)c3[H])c2c1[H])=C(/[H])C([H])([H])N1C([H])([H])C([H])([H])C([H])([H])C([H])([H])C1([H])[H]


 45 49  0  0  0  0  0  0  0  0999 V2000
    9.4508   50.6189  132.9300 C   0  0  0  0  0  0  0  0  0  0  0  0
   10.0460   49.7863  133.8273 C   0  0  0  0  0  0  0  0  0  0  0  0
    9.7757   48.4145  133.8470 C   0  0  0  0  0  0  0  0  0  0  0  0
   10.3777   47.6131  134.7433 N   0  0  0  0  0  0  0  0  0  0  0  0
   10.1185   46.2735  134.7675 C   0  0  0  0  0  0  0  0  0  0  0  0
    9.2410   45.6821  133.8896 C   0  0  0  0  0  0  0  0  0  0  0  0
    8.6233   46.5237  132.9654 C   0  0  0  0  0  0  0  0  0  0  0  0
    8.8890   47.8724  132.9460 C   0  0  0  0  0  0  0  0  0  0  0  0
    8.2951   48.7576  132.0378 C   0  0  0  0  0  0  0  0  0  0  0  0
    8.5379   50.0984  131.9932 C   0  0  0  0  0  0  0  0  0  0  0  0
    7.9506   50.9958  131.0774 N   0  0  0  0  0  0  0  0  0  0  0  0
    7.0906   50.7241  130.0303 C   0  0  0  0  0  0  0  0  0  0  0  0
    6.7078   49.5598  129.7627 O   0  0  0  0  0  0  0  0  0  0  0  0
    8.2025   52.0348  131.2049 H   0  0  0  0  0  0  0  0  0  0  0  0
    6.5629   51.7686  129.1566 C   0  0  0  0  0  0  0  0  0  0  0  0
    7.2430   52.3685  128.2324 C   0  0  0  0  0  0  0  0  0  0  0  0
    6.6648   53.4390  127.3535 C   0  0  0  0  0  0  0  0  0  0  0  0
    7.4465   53.5486  126.1504 N   0  0  0  0  0  0  0  0  0  0  0  0
    6.7298   53.9984  125.0006 C   0  0  0  0  0  0  0  0  0  0  0  0
    7.4797   53.5091  123.7609 C   0  0  0  0  0  0  0  0  0  0  0  0
    8.9838   53.5643  124.0146 C   0  0  0  0  0  0  0  0  0  0  0  0
    9.2669   54.6576  125.0197 C   0  0  0  0  0  0  0  0  0  0  0  0
    8.6040   54.4160  126.3331 C   0  0  0  0  0  0  0  0  0  0  0  0
    8.9446   44.2887  133.8833 C   0  0  0  0  0  0  0  0  0  0  0  0
    8.6962   43.1501  133.8955 N   0  0  0  0  0  0  0  0  0  0  0  0
    7.7101   45.9674  132.0394 N   0  0  0  0  0  0  0  0  0  0  0  0
    6.6994   46.1399  132.2110 H   0  0  0  0  0  0  0  0  0  0  0  0
    8.0478   45.2093  130.9181 C   0  0  0  0  0  0  0  0  0  0  0  0
    8.3140   45.8114  129.7282 C   0  0  0  0  0  0  0  0  0  0  0  0
    8.6484   45.0652  128.6297 C   0  0  0  0  0  0  0  0  0  0  0  0
    8.7319   43.6837  128.6702 C   0  0  0  0  0  0  0  0  0  0  0  0
    8.4539   43.1121  129.8953 C   0  0  0  0  0  0  0  0  0  0  0  0
    8.5476   41.3480  129.9872 Cl  0  0  0  0  0  0  0  0  0  0  0  0
    8.1178   43.8461  131.0037 C   0  0  0  0  0  0  0  0  0  0  0  0
    9.0740   42.9422  127.5420 O   0  0  0  0  0  0  0  0  0  0  0  0
   10.4444   42.8808  127.1851 C   0  0  0  0  0  0  0  0  0  0  0  0
   11.2948   43.4837  128.2353 C   0  0  0  0  0  0  0  0  0  0  0  0
   11.1575   43.0336  129.5266 C   0  0  0  0  0  0  0  0  0  0  0  0
   11.9182   43.5549  130.5434 C   0  0  0  0  0  0  0  0  0  0  0  0
   12.8223   44.5348  130.2616 C   0  0  0  0  0  0  0  0  0  0  0  0
   13.0002   45.0268  128.9676 C   0  0  0  0  0  0  0  0  0  0  0  0
   12.2102   44.4712  127.9693 C   0  0  0  0  0  0  0  0  0  0  0  0
    9.7126   51.9485  132.9130 O   0  0  0  0  0  0  0  0  0  0  0  0
    9.1758   53.1132  134.9975 C   0  0  0  0  0  0  0  0  0  0  0  0
   10.1667   52.7330  133.9464 C   0  0  0  0  0  0  0  0  0  0  0  0
 44 45  1  0  0  0
 45 43  1  0  0  0
 43  1  1  0  0  0
  1  2  2  0  0  0
  2  3  1  0  0  0
  3  4  2  0  0  0
  4  5  1  0  0  0
  5  6  2  0  0  0
  6 24  1  0  0  0
 24 25  3  0  0  0
  6  7  1  0  0  0
  7 26  1  0  0  0
 26 28  1  0  0  0
 28 29  2  0  0  0
 29 30  1  0  0  0
 30 31  2  0  0  0
 31 35  1  0  0  0
 35 36  1  0  0  0
 36 37  1  0  0  0
 37 38  2  0  0  0
 38 39  1  0  0  0
 39 40  2  0  0  0
 40 41  1  0  0  0
 41 42  2  0  0  0
 31 32  1  0  0  0
 32 33  1  0  0  0
 32 34  2  0  0  0
  7  8  2  0  0  0
  8  9  1  0  0  0
  9 10  2  0  0  0
 10 11  1  0  0  0
 11 12  1  0  0  0
 12 13  2  0  0  0
 12 15  1  0  0  0
 15 16  2  0  0  0
 16 17  1  0  0  0
 17 18  1  0  0  0
 18 19  1  0  0  0
 19 20  1  0  0  0
 20 21  1  0  0  0
 21 22  1  0  0  0
 22 23  1  0  0  0
 10  1  1  0  0  0
 23 18  1  0  0  0
  8  3  1  0  0  0
 34 28  1  0  0  0
 42 37  1  0  0  0
 26 27  1  0  0  0
 11 14  1  0  0  0
M  END
> <minimizedAffinity>
11.79198

> <CNNscore>
0.2964738607

> <CNNaffinity>
7.7773261070

> <CNN_VS>
2.3057739735

> <CNNaffinity_variance>
0.3318715096

$$$$
[H]/C(C(=O)N([H])c1c(OC([H])([H])C([H])([H])[H])c([H])c2nc([H])c(C#N)c(N([H])c3c([H])c([H])c(OC([H])([H])c4c([H])c([H])c([H])c([H])c4[H])c(Cl)c3[H])c2c1[H])=C(/[H])C([H])([H])N1C([H])([H])C([H])([H])C([H])([H])C([H])([H])C1([H])[H]


 45 49  0  0  0  0  0  0  0  0999 V2000
    8.0210   45.5551  128.8041 C   0  0  0  0  0  0  0  0  0  0  0  0
    7.6089   46.3991  127.8190 C   0  0  0  0  0  0  0  0  0  0  0  0
    7.4507   47.7699  128.0457 C   0  0  0  0  0  0  0  0  0  0  0  0
    7.0432   48.5828  127.0552 N   0  0  0  0  0  0  0  0  0  0  0  0
    6.8872   49.9214  127.2699 C   0  0  0  0  0  0  0  0  0  0  0  0
    7.1349   50.5002  128.4922 C   0  0  0  0  0  0  0  0  0  0  0  0
    7.5568   49.6467  129.5108 C   0  0  0  0  0  0  0  0  0  0  0  0
    7.7124   48.2991  129.2881 C   0  0  0  0  0  0  0  0  0  0  0  0
    8.1338   47.4022  130.2776 C   0  0  0  0  0  0  0  0  0  0  0  0
    8.2977   46.0621  130.0879 C   0  0  0  0  0  0  0  0  0  0  0  0
    8.7291   45.1531  131.0761 N   0  0  0  0  0  0  0  0  0  0  0  0
    8.2380   43.8946  131.3675 C   0  0  0  0  0  0  0  0  0  0  0  0
    7.2834   43.3846  130.7333 O   0  0  0  0  0  0  0  0  0  0  0  0
    9.5514   45.4771  131.6909 H   0  0  0  0  0  0  0  0  0  0  0  0
    8.7907   43.0638  132.4338 C   0  0  0  0  0  0  0  0  0  0  0  0
   10.0384   42.7335  132.5382 C   0  0  0  0  0  0  0  0  0  0  0  0
   10.5691   41.8763  133.6500 C   0  0  0  0  0  0  0  0  0  0  0  0
   10.6866   42.6621  134.8497 N   0  0  0  0  0  0  0  0  0  0  0  0
   12.0170   43.0500  135.1924 C   0  0  0  0  0  0  0  0  0  0  0  0
   12.0514   43.3246  136.6964 C   0  0  0  0  0  0  0  0  0  0  0  0
   10.7397   43.9727  137.1311 C   0  0  0  0  0  0  0  0  0  0  0  0
   10.1661   44.7396  135.9612 C   0  0  0  0  0  0  0  0  0  0  0  0
    9.8626   43.8636  134.7935 C   0  0  0  0  0  0  0  0  0  0  0  0
    6.9841   51.8921  128.7552 C   0  0  0  0  0  0  0  0  0  0  0  0
    6.8424   53.0289  128.9694 N   0  0  0  0  0  0  0  0  0  0  0  0
    7.8247   50.1898  130.7893 N   0  0  0  0  0  0  0  0  0  0  0  0
    7.4317   51.1300  130.9947 H   0  0  0  0  0  0  0  0  0  0  0  0
    8.5685   49.5738  131.7959 C   0  0  0  0  0  0  0  0  0  0  0  0
    9.7741   50.0767  132.1740 C   0  0  0  0  0  0  0  0  0  0  0  0
   10.5009   49.4720  133.1646 C   0  0  0  0  0  0  0  0  0  0  0  0
   10.0563   48.3377  133.8224 C   0  0  0  0  0  0  0  0  0  0  0  0
    8.8295   47.8593  133.4089 C   0  0  0  0  0  0  0  0  0  0  0  0
    8.2275   46.4093  134.2239 Cl  0  0  0  0  0  0  0  0  0  0  0  0
    8.0904   48.4539  132.4186 C   0  0  0  0  0  0  0  0  0  0  0  0
   10.8101   47.7373  134.8279 O   0  0  0  0  0  0  0  0  0  0  0  0
   12.1366   47.3491  134.5137 C   0  0  0  0  0  0  0  0  0  0  0  0
   12.1585   46.4055  133.3741 C   0  0  0  0  0  0  0  0  0  0  0  0
   11.4433   46.7265  132.2452 C   0  0  0  0  0  0  0  0  0  0  0  0
   11.4251   45.8907  131.1564 C   0  0  0  0  0  0  0  0  0  0  0  0
   12.1296   44.7251  131.2018 C   0  0  0  0  0  0  0  0  0  0  0  0
   12.8716   44.3527  132.3237 C   0  0  0  0  0  0  0  0  0  0  0  0
   12.8624   45.2276  133.4025 C   0  0  0  0  0  0  0  0  0  0  0  0
    8.1725   44.2264  128.5834 O   0  0  0  0  0  0  0  0  0  0  0  0
   10.4890   43.4683  128.3622 C   0  0  0  0  0  0  0  0  0  0  0  0
    9.1125   43.6028  127.7980 C   0  0  0  0  0  0  0  0  0  0  0  0
 44 45  1  0  0  0
 45 43  1  0  0  0
 43  1  1  0  0  0
  1  2  2  0  0  0
  2  3  1  0  0  0
  3  4  2  0  0  0
  4  5  1  0  0  0
  5  6  2  0  0  0
  6 24  1  0  0  0
 24 25  3  0  0  0
  6  7  1  0  0  0
  7 26  1  0  0  0
 26 28  1  0  0  0
 28 29  2  0  0  0
 29 30  1  0  0  0
 30 31  2  0  0  0
 31 35  1  0  0  0
 35 36  1  0  0  0
 36 37  1  0  0  0
 37 38  2  0  0  0
 38 39  1  0  0  0
 39 40  2  0  0  0
 40 41  1  0  0  0
 41 42  2  0  0  0
 31 32  1  0  0  0
 32 33  1  0  0  0
 32 34  2  0  0  0
  7  8  2  0  0  0
  8  9  1  0  0  0
  9 10  2  0  0  0
 10 11  1  0  0  0
 11 12  1  0  0  0
 12 13  2  0  0  0
 12 15  1  0  0  0
 15 16  2  0  0  0
 16 17  1  0  0  0
 17 18  1  0  0  0
 18 19  1  0  0  0
 19 20  1  0  0  0
 20 21  1  0  0  0
 21 22  1  0  0  0
 22 23  1  0  0  0
 10  1  1  0  0  0
 23 18  1  0  0  0
  8  3  1  0  0  0
 34 28  1  0  0  0
 42 37  1  0  0  0
 26 27  1  0  0  0
 11 14  1  0  0  0
M  END
> <minimizedAffinity>
14.97635

> <CNNscore>
0.2942730188

> <CNNaffinity>
8.1199903488

> <CNN_VS>
2.3894941807

> <CNNaffinity_variance>
0.8483273387

$$$$
[H]/C(C(=O)N([H])c1c(OC([H])([H])C([H])([H])[H])c([H])c2nc([H])c(C#N)c(N([H])c3c([H])c([H])c(OC([H])([H])c4c([H])c([H])c([H])c([H])c4[H])c(Cl)c3[H])c2c1[H])=C(/[H])C([H])([H])N1C([H])([H])C([H])([H])C([H])([H])C([H])([H])C1([H])[H]


 45 49  0  0  0  0  0  0  0  0999 V2000
    9.3630   43.2503  129.8614 C   0  0  0  0  0  0  0  0  0  0  0  0
   10.5112   42.6034  130.2018 C   0  0  0  0  0  0  0  0  0  0  0  0
   11.2428   42.9568  131.3399 C   0  0  0  0  0  0  0  0  0  0  0  0
   12.3738   42.3013  131.6548 N   0  0  0  0  0  0  0  0  0  0  0  0
   13.0922   42.6410  132.7642 C   0  0  0  0  0  0  0  0  0  0  0  0
   12.7027   43.6564  133.6055 C   0  0  0  0  0  0  0  0  0  0  0  0
   11.5285   44.3281  133.2681 C   0  0  0  0  0  0  0  0  0  0  0  0
   10.8091   43.9810  132.1492 C   0  0  0  0  0  0  0  0  0  0  0  0
    9.6249   44.6245  131.7691 C   0  0  0  0  0  0  0  0  0  0  0  0
    8.8896   44.3034  130.6668 C   0  0  0  0  0  0  0  0  0  0  0  0
    7.6921   44.9406  130.2807 N   0  0  0  0  0  0  0  0  0  0  0  0
    7.5215   46.1828  129.6998 C   0  0  0  0  0  0  0  0  0  0  0  0
    8.4887   46.9347  129.4297 O   0  0  0  0  0  0  0  0  0  0  0  0
    6.7840   44.3909  130.4608 H   0  0  0  0  0  0  0  0  0  0  0  0
    6.2054   46.7150  129.3569 C   0  0  0  0  0  0  0  0  0  0  0  0
    5.1088   46.4265  129.9822 C   0  0  0  0  0  0  0  0  0  0  0  0
    3.7732   46.9942  129.5991 C   0  0  0  0  0  0  0  0  0  0  0  0
    2.7272   46.1325  130.0826 N   0  0  0  0  0  0  0  0  0  0  0  0
    1.9616   46.6579  131.1669 C   0  0  0  0  0  0  0  0  0  0  0  0
    1.3472   45.4777  131.9208 C   0  0  0  0  0  0  0  0  0  0  0  0
    0.9523   44.3847  130.9314 C   0  0  0  0  0  0  0  0  0  0  0  0
    0.6378   45.0265  129.5991 C   0  0  0  0  0  0  0  0  0  0  0  0
    1.8063   45.7486  129.0193 C   0  0  0  0  0  0  0  0  0  0  0  0
   13.4248   44.0401  134.7720 C   0  0  0  0  0  0  0  0  0  0  0  0
   14.0000   44.3609  135.7335 N   0  0  0  0  0  0  0  0  0  0  0  0
   11.0825   45.3827  134.0989 N   0  0  0  0  0  0  0  0  0  0  0  0
   11.1839   45.2506  135.1251 H   0  0  0  0  0  0  0  0  0  0  0  0
   10.5199   46.5818  133.6612 C   0  0  0  0  0  0  0  0  0  0  0  0
    9.4982   47.1600  134.3476 C   0  0  0  0  0  0  0  0  0  0  0  0
    8.9498   48.3388  133.9176 C   0  0  0  0  0  0  0  0  0  0  0  0
    9.3971   48.9933  132.7824 C   0  0  0  0  0  0  0  0  0  0  0  0
   10.4341   48.3737  132.1149 C   0  0  0  0  0  0  0  0  0  0  0  0
   11.0324   49.1780  130.6574 Cl  0  0  0  0  0  0  0  0  0  0  0  0
   10.9933   47.1936  132.5333 C   0  0  0  0  0  0  0  0  0  0  0  0
    8.8264   50.1920  132.3613 O   0  0  0  0  0  0  0  0  0  0  0  0
    8.9439   50.5312  130.9901 C   0  0  0  0  0  0  0  0  0  0  0  0
    7.6708   50.2960  130.2734 C   0  0  0  0  0  0  0  0  0  0  0  0
    7.7241   49.8855  128.9629 C   0  0  0  0  0  0  0  0  0  0  0  0
    6.5768   49.6520  128.2463 C   0  0  0  0  0  0  0  0  0  0  0  0
    5.3683   49.8320  128.8498 C   0  0  0  0  0  0  0  0  0  0  0  0
    5.2595   50.2477  130.1777 C   0  0  0  0  0  0  0  0  0  0  0  0
    6.4452   50.4724  130.8655 C   0  0  0  0  0  0  0  0  0  0  0  0
    8.6556   42.9078  128.7572 O   0  0  0  0  0  0  0  0  0  0  0  0
   10.1153   44.0690  127.1727 C   0  0  0  0  0  0  0  0  0  0  0  0
    8.8464   43.3372  127.4655 C   0  0  0  0  0  0  0  0  0  0  0  0
 44 45  1  0  0  0
 45 43  1  0  0  0
 43  1  1  0  0  0
  1  2  2  0  0  0
  2  3  1  0  0  0
  3  4  2  0  0  0
  4  5  1  0  0  0
  5  6  2  0  0  0
  6 24  1  0  0  0
 24 25  3  0  0  0
  6  7  1  0  0  0
  7 26  1  0  0  0
 26 28  1  0  0  0
 28 29  2  0  0  0
 29 30  1  0  0  0
 30 31  2  0  0  0
 31 35  1  0  0  0
 35 36  1  0  0  0
 36 37  1  0  0  0
 37 38  2  0  0  0
 38 39  1  0  0  0
 39 40  2  0  0  0
 40 41  1  0  0  0
 41 42  2  0  0  0
 31 32  1  0  0  0
 32 33  1  0  0  0
 32 34  2  0  0  0
  7  8  2  0  0  0
  8  9  1  0  0  0
  9 10  2  0  0  0
 10 11  1  0  0  0
 11 12  1  0  0  0
 12 13  2  0  0  0
 12 15  1  0  0  0
 15 16  2  0  0  0
 16 17  1  0  0  0
 17 18  1  0  0  0
 18 19  1  0  0  0
 19 20  1  0  0  0
 20 21  1  0  0  0
 21 22  1  0  0  0
 22 23  1  0  0  0
 10  1  1  0  0  0
 23 18  1  0  0  0
  8  3  1  0  0  0
 34 28  1  0  0  0
 42 37  1  0  0  0
 26 27  1  0  0  0
 11 14  1  0  0  0
M  END
> <minimizedAffinity>
16.30260

> <CNNscore>
0.2912667394

> <CNNaffinity>
8.1510639191

> <CNN_VS>
2.3741338253

> <CNNaffinity_variance>
0.2504401803

$$$$
[H]/C(C(=O)N([H])c1c(OC([H])([H])C([H])([H])[H])c([H])c2nc([H])c(C#N)c(N([H])c3c([H])c([H])c(OC([H])([H])c4c([H])c([H])c([H])c([H])c4[H])c(Cl)c3[H])c2c1[H])=C(/[H])C([H])([H])N1C([H])([H])C([H])([H])C([H])([H])C([H])([H])C1([H])[H]


 45 49  0  0  0  0  0  0  0  0999 V2000
   11.2512   44.3638  129.7823 C   0  0  0  0  0  0  0  0  0  0  0  0
   12.1593   43.5925  130.4404 C   0  0  0  0  0  0  0  0  0  0  0  0
   12.1428   43.4662  131.8329 C   0  0  0  0  0  0  0  0  0  0  0  0
   13.0508   42.6971  132.4591 N   0  0  0  0  0  0  0  0  0  0  0  0
   13.0399   42.5693  133.8177 C   0  0  0  0  0  0  0  0  0  0  0  0
   12.1137   43.2110  134.6056 C   0  0  0  0  0  0  0  0  0  0  0  0
   11.1778   44.0054  133.9444 C   0  0  0  0  0  0  0  0  0  0  0  0
   11.1939   44.1298  132.5753 C   0  0  0  0  0  0  0  0  0  0  0  0
   10.2760   44.9142  131.8661 C   0  0  0  0  0  0  0  0  0  0  0  0
   10.2657   45.0573  130.5103 C   0  0  0  0  0  0  0  0  0  0  0  0
    9.3407   45.8386  129.7873 N   0  0  0  0  0  0  0  0  0  0  0  0
    7.9970   45.6039  129.5654 C   0  0  0  0  0  0  0  0  0  0  0  0
    7.4091   44.5937  130.0210 O   0  0  0  0  0  0  0  0  0  0  0  0
    9.7269   46.7410  129.3449 H   0  0  0  0  0  0  0  0  0  0  0  0
    7.1601   46.5114  128.7850 C   0  0  0  0  0  0  0  0  0  0  0  0
    6.0644   47.0533  129.2121 C   0  0  0  0  0  0  0  0  0  0  0  0
    5.2302   47.9819  128.3788 C   0  0  0  0  0  0  0  0  0  0  0  0
    5.5928   49.3443  128.6670 N   0  0  0  0  0  0  0  0  0  0  0  0
    5.6102   49.6868  130.0528 C   0  0  0  0  0  0  0  0  0  0  0  0
    5.4192   51.2001  130.1630 C   0  0  0  0  0  0  0  0  0  0  0  0
    6.1414   51.8949  129.0117 C   0  0  0  0  0  0  0  0  0  0  0  0
    7.3104   51.0370  128.5837 C   0  0  0  0  0  0  0  0  0  0  0  0
    6.8882   49.6929  128.0959 C   0  0  0  0  0  0  0  0  0  0  0  0
   12.0696   43.1026  136.0253 C   0  0  0  0  0  0  0  0  0  0  0  0
   12.0168   43.0214  137.1867 N   0  0  0  0  0  0  0  0  0  0  0  0
   10.2025   44.6894  134.7072 N   0  0  0  0  0  0  0  0  0  0  0  0
    9.6554   44.1263  135.3885 H   0  0  0  0  0  0  0  0  0  0  0  0
    9.9122   46.0514  134.6245 C   0  0  0  0  0  0  0  0  0  0  0  0
   10.7497   46.9007  133.9713 C   0  0  0  0  0  0  0  0  0  0  0  0
   10.4609   48.2367  133.8888 C   0  0  0  0  0  0  0  0  0  0  0  0
    9.3225   48.7848  134.4550 C   0  0  0  0  0  0  0  0  0  0  0  0
    8.4998   47.8899  135.1086 C   0  0  0  0  0  0  0  0  0  0  0  0
    7.0356   48.5522  135.8478 Cl  0  0  0  0  0  0  0  0  0  0  0  0
    8.7758   46.5498  135.1995 C   0  0  0  0  0  0  0  0  0  0  0  0
    9.0460   50.1466  134.3599 O   0  0  0  0  0  0  0  0  0  0  0  0
    9.6133   50.8593  133.2740 C   0  0  0  0  0  0  0  0  0  0  0  0
    9.6050   50.0429  132.0399 C   0  0  0  0  0  0  0  0  0  0  0  0
    8.4339   49.4247  131.6724 C   0  0  0  0  0  0  0  0  0  0  0  0
    8.3649   48.6542  130.5384 C   0  0  0  0  0  0  0  0  0  0  0  0
    9.4794   48.5035  129.7688 C   0  0  0  0  0  0  0  0  0  0  0  0
   10.6928   49.1097  130.0978 C   0  0  0  0  0  0  0  0  0  0  0  0
   10.7178   49.8804  131.2531 C   0  0  0  0  0  0  0  0  0  0  0  0
   11.2692   44.4866  128.4327 O   0  0  0  0  0  0  0  0  0  0  0  0
    9.5984   42.7642  127.9515 C   0  0  0  0  0  0  0  0  0  0  0  0
   10.3778   43.9651  127.5255 C   0  0  0  0  0  0  0  0  0  0  0  0
 44 45  1  0  0  0
 45 43  1  0  0  0
 43  1  1  0  0  0
  1  2  2  0  0  0
  2  3  1  0  0  0
  3  4  2  0  0  0
  4  5  1  0  0  0
  5  6  2  0  0  0
  6 24  1  0  0  0
 24 25  3  0  0  0
  6  7  1  0  0  0
  7 26  1  0  0  0
 26 28  1  0  0  0
 28 29  2  0  0  0
 29 30  1  0  0  0
 30 31  2  0  0  0
 31 35  1  0  0  0
 35 36  1  0  0  0
 36 37  1  0  0  0
 37 38  2  0  0  0
 38 39  1  0  0  0
 39 40  2  0  0  0
 40 41  1  0  0  0
 41 42  2  0  0  0
 31 32  1  0  0  0
 32 33  1  0  0  0
 32 34  2  0  0  0
  7  8  2  0  0  0
  8  9  1  0  0  0
  9 10  2  0  0  0
 10 11  1  0  0  0
 11 12  1  0  0  0
 12 13  2  0  0  0
 12 15  1  0  0  0
 15 16  2  0  0  0
 16 17  1  0  0  0
 17 18  1  0  0  0
 18 19  1  0  0  0
 19 20  1  0  0  0
 20 21  1  0  0  0
 21 22  1  0  0  0
 22 23  1  0  0  0
 10  1  1  0  0  0
 23 18  1  0  0  0
  8  3  1  0  0  0
 34 28  1  0  0  0
 42 37  1  0  0  0
 26 27  1  0  0  0
 11 14  1  0  0  0
M  END
> <minimizedAffinity>
13.83673

> <CNNscore>
0.2752156854

> <CNNaffinity>
8.0588197708

> <CNN_VS>
2.2179136276

> <CNNaffinity_variance>
0.5591114163

$$$$
[H]/C(C(=O)N([H])c1c(OC([H])([H])C([H])([H])[H])c([H])c2nc([H])c(C#N)c(N([H])c3c([H])c([H])c(OC([H])([H])c4c([H])c([H])c([H])c([H])c4[H])c(Cl)c3[H])c2c1[H])=C(/[H])C([H])([H])N1C([H])([H])C([H])([H])C([H])([H])C([H])([H])C1([H])[H]


 45 49  0  0  0  0  0  0  0  0999 V2000
    9.2187   43.3776  129.8577 C   0  0  0  0  0  0  0  0  0  0  0  0
   10.4189   42.7681  130.0596 C   0  0  0  0  0  0  0  0  0  0  0  0
   11.1842   43.0151  131.2035 C   0  0  0  0  0  0  0  0  0  0  0  0
   12.3664   42.3992  131.3797 N   0  0  0  0  0  0  0  0  0  0  0  0
   13.1179   42.6356  132.4940 C   0  0  0  0  0  0  0  0  0  0  0  0
   12.7114   43.5032  133.4802 C   0  0  0  0  0  0  0  0  0  0  0  0
   11.4840   44.1353  133.2856 C   0  0  0  0  0  0  0  0  0  0  0  0
   10.7315   43.8927  132.1610 C   0  0  0  0  0  0  0  0  0  0  0  0
    9.4936   44.5019  131.9208 C   0  0  0  0  0  0  0  0  0  0  0  0
    8.7245   44.2819  130.8168 C   0  0  0  0  0  0  0  0  0  0  0  0
    7.4735   44.8847  130.5705 N   0  0  0  0  0  0  0  0  0  0  0  0
    7.0010   46.1072  131.0086 C   0  0  0  0  0  0  0  0  0  0  0  0
    7.6884   46.8732  131.7259 O   0  0  0  0  0  0  0  0  0  0  0  0
    6.7886   44.3215  129.9598 H   0  0  0  0  0  0  0  0  0  0  0  0
    5.6683   46.6003  130.6716 C   0  0  0  0  0  0  0  0  0  0  0  0
    5.1021   46.4606  129.5155 C   0  0  0  0  0  0  0  0  0  0  0  0
    3.7290   46.9823  129.2069 C   0  0  0  0  0  0  0  0  0  0  0  0
    2.7435   46.1534  129.8490 N   0  0  0  0  0  0  0  0  0  0  0  0
    2.0684   46.7581  130.9519 C   0  0  0  0  0  0  0  0  0  0  0  0
    1.5417   45.6375  131.8494 C   0  0  0  0  0  0  0  0  0  0  0  0
    1.0784   44.4646  130.9895 C   0  0  0  0  0  0  0  0  0  0  0  0
    0.6375   44.9938  129.6437 C   0  0  0  0  0  0  0  0  0  0  0  0
    1.7386   45.6768  128.9062 C   0  0  0  0  0  0  0  0  0  0  0  0
   13.4668   43.7758  134.6567 C   0  0  0  0  0  0  0  0  0  0  0  0
   14.0699   44.0066  135.6269 N   0  0  0  0  0  0  0  0  0  0  0  0
   11.0183   45.0393  134.2691 N   0  0  0  0  0  0  0  0  0  0  0  0
   11.0557   44.7216  135.2582 H   0  0  0  0  0  0  0  0  0  0  0  0
   10.5146   46.3175  134.0268 C   0  0  0  0  0  0  0  0  0  0  0  0
   11.0748   47.1156  133.0789 C   0  0  0  0  0  0  0  0  0  0  0  0
   10.5766   48.3687  132.8407 C   0  0  0  0  0  0  0  0  0  0  0  0
    9.4962   48.8812  133.5388 C   0  0  0  0  0  0  0  0  0  0  0  0
    8.9574   48.0405  134.4915 C   0  0  0  0  0  0  0  0  0  0  0  0
    7.5765   48.6602  135.4068 Cl  0  0  0  0  0  0  0  0  0  0  0  0
    9.4454   46.7835  134.7410 C   0  0  0  0  0  0  0  0  0  0  0  0
    9.0037   50.1584  133.2816 O   0  0  0  0  0  0  0  0  0  0  0  0
    9.3584   50.7655  132.0509 C   0  0  0  0  0  0  0  0  0  0  0  0
    8.6096   50.1631  130.9257 C   0  0  0  0  0  0  0  0  0  0  0  0
    9.2642   49.2769  130.1042 C   0  0  0  0  0  0  0  0  0  0  0  0
    8.6223   48.6865  129.0442 C   0  0  0  0  0  0  0  0  0  0  0  0
    7.3146   48.9881  128.8077 C   0  0  0  0  0  0  0  0  0  0  0  0
    6.6047   49.8813  129.6116 C   0  0  0  0  0  0  0  0  0  0  0  0
    7.2926   50.4555  130.6729 C   0  0  0  0  0  0  0  0  0  0  0  0
    8.4786   43.1385  128.7477 O   0  0  0  0  0  0  0  0  0  0  0  0
    9.9389   44.3197  127.1786 C   0  0  0  0  0  0  0  0  0  0  0  0
    8.8304   43.3522  127.4362 C   0  0  0  0  0  0  0  0  0  0  0  0
 44 45  1  0  0  0
 45 43  1  0  0  0
 43  1  1  0  0  0
  1  2  2  0  0  0
  2  3  1  0  0  0
  3  4  2  0  0  0
  4  5  1  0  0  0
  5  6  2  0  0  0
  6 24  1  0  0  0
 24 25  3  0  0  0
  6  7  1  0  0  0
  7 26  1  0  0  0
 26 28  1  0  0  0
 28 29  2  0  0  0
 29 30  1  0  0  0
 30 31  2  0  0  0
 31 35  1  0  0  0
 35 36  1  0  0  0
 36 37  1  0  0  0
 37 38  2  0  0  0
 38 39  1  0  0  0
 39 40  2  0  0  0
 40 41  1  0  0  0
 41 42  2  0  0  0
 31 32  1  0  0  0
 32 33  1  0  0  0
 32 34  2  0  0  0
  7  8  2  0  0  0
  8  9  1  0  0  0
  9 10  2  0  0  0
 10 11  1  0  0  0
 11 12  1  0  0  0
 12 13  2  0  0  0
 12 15  1  0  0  0
 15 16  2  0  0  0
 16 17  1  0  0  0
 17 18  1  0  0  0
 18 19  1  0  0  0
 19 20  1  0  0  0
 20 21  1  0  0  0
 21 22  1  0  0  0
 22 23  1  0  0  0
 10  1  1  0  0  0
 23 18  1  0  0  0
  8  3  1  0  0  0
 34 28  1  0  0  0
 42 37  1  0  0  0
 26 27  1  0  0  0
 11 14  1  0  0  0
M  END
> <minimizedAffinity>
17.49423

> <CNNscore>
0.2733194828

> <CNNaffinity>
8.0786972046

> <CNN_VS>
2.2080652714

> <CNNaffinity_variance>
0.2230060101

$$$$
[H]OC(=O)C([H])([H])[C@@]([H])(C(=O)C([H])([H])SC([H])([H])c1c([H])c([H])c([H])c([H])c1[H])N([H])C(=O)C([H])(n1c([H])c([H])nc(N([H])C([H])([H])c2nonc2C([H])([H])[H])c1=O)C([H])([H])C([H])([H])[H]


 40 42  0  0  0  0  0  0  0  0999 V2000
   10.0129   43.6330  134.0626 C   0  0  0  0  0  0  0  0  0  0  0  0
   10.2602   42.4903  134.5841 O   0  0  0  0  0  0  0  0  0  0  0  0
   10.8983   44.1472  133.0819 N   0  0  0  0  0  0  0  0  0  0  0  0
   10.6769   45.0873  132.6694 H   0  0  0  0  0  0  0  0  0  0  0  0
    8.8392   44.4154  134.4565 C   0  0  0  0  0  0  0  0  0  0  0  0
    8.9299   45.8146  134.1663 N   0  0  0  0  0  0  0  0  0  0  0  0
    9.3724   46.7231  135.0872 C   0  0  0  0  0  0  0  0  0  0  0  0
    9.4602   48.0675  134.8113 C   0  0  0  0  0  0  0  0  0  0  0  0
    9.0964   48.5060  133.5872 N   0  0  0  0  0  0  0  0  0  0  0  0
    8.6539   47.6629  132.6405 C   0  0  0  0  0  0  0  0  0  0  0  0
    8.5853   46.3171  132.9716 C   0  0  0  0  0  0  0  0  0  0  0  0
    8.1697   45.5492  132.0722 O   0  0  0  0  0  0  0  0  0  0  0  0
    8.2761   48.0939  131.3480 N   0  0  0  0  0  0  0  0  0  0  0  0
    7.5520   47.5885  130.8147 H   0  0  0  0  0  0  0  0  0  0  0  0
    8.9142   49.2472  130.7854 C   0  0  0  0  0  0  0  0  0  0  0  0
    7.9553   50.1961  130.1322 C   0  0  0  0  0  0  0  0  0  0  0  0
    7.6319   51.4577  130.4582 N   0  0  0  0  0  0  0  0  0  0  0  0
    6.7407   51.9211  129.6255 O   0  0  0  0  0  0  0  0  0  0  0  0
    6.4539   51.0146  128.7511 N   0  0  0  0  0  0  0  0  0  0  0  0
    7.1866   49.9146  129.0229 C   0  0  0  0  0  0  0  0  0  0  0  0
    7.2022   48.6231  128.3011 C   0  0  0  0  0  0  0  0  0  0  0  0
    7.7865   42.4354  133.3305 C   0  0  0  0  0  0  0  0  0  0  0  0
    7.5402   43.7809  133.9646 C   0  0  0  0  0  0  0  0  0  0  0  0
   12.0799   43.4420  132.6302 C   0  0  0  0  0  0  0  0  0  0  0  0
   12.8403   44.2838  131.6325 C   0  0  0  0  0  0  0  0  0  0  0  0
   12.8738   45.4991  131.7024 O   0  0  0  0  0  0  0  0  0  0  0  0
   13.5806   43.6333  130.5186 C   0  0  0  0  0  0  0  0  0  0  0  0
   13.6453   44.6975  129.0677 S   0  0  0  0  0  0  0  0  0  0  0  0
   12.4575   44.2151  127.8072 C   0  0  0  0  0  0  0  0  0  0  0  0
   11.0551   44.5378  128.1554 C   0  0  0  0  0  0  0  0  0  0  0  0
   10.0193   43.6502  128.0442 C   0  0  0  0  0  0  0  0  0  0  0  0
    8.7502   44.0241  128.3863 C   0  0  0  0  0  0  0  0  0  0  0  0
    8.4682   45.3011  128.8528 C   0  0  0  0  0  0  0  0  0  0  0  0
    9.5305   46.1884  128.9592 C   0  0  0  0  0  0  0  0  0  0  0  0
   10.8161   45.8260  128.6181 C   0  0  0  0  0  0  0  0  0  0  0  0
   11.7557   42.1546  131.9118 C   0  0  0  0  0  0  0  0  0  0  0  0
   10.5124   42.3121  131.1411 C   0  0  0  0  0  0  0  0  0  0  0  0
    9.8257   43.5281  131.1884 O   0  0  0  0  0  0  0  0  0  0  0  0
   10.0183   41.4210  130.4352 O   0  0  0  0  0  0  0  0  0  0  0  0
    9.6891   43.9419  132.1105 H   0  0  0  0  0  0  0  0  0  0  0  0
 22 23  1  0  0  0
 23  5  1  0  0  0
  5  1  1  0  0  0
  1  2  2  0  0  0
  1  3  1  0  0  0
  3 24  1  0  0  0
 24 36  1  0  0  0
 36 37  1  0  0  0
 37 38  1  0  0  0
 37 39  2  0  0  0
 24 25  1  0  0  0
 25 26  2  0  0  0
 25 27  1  0  0  0
 27 28  1  0  0  0
 28 29  1  0  0  0
 29 30  1  0  0  0
 30 31  2  0  0  0
 31 32  1  0  0  0
 32 33  2  0  0  0
 33 34  1  0  0  0
 34 35  2  0  0  0
  5  6  1  0  0  0
  6  7  1  0  0  0
  7  8  2  0  0  0
  8  9  1  0  0  0
  9 10  2  0  0  0
 10 13  1  0  0  0
 13 15  1  0  0  0
 15 16  1  0  0  0
 16 17  2  0  0  0
 17 18  1  0  0  0
 18 19  1  0  0  0
 19 20  2  0  0  0
 20 21  1  0  0  0
 10 11  1  0  0  0
 11 12  2  0  0  0
 35 30  1  0  0  0
 11  6  1  0  0  0
 20 16  1  0  0  0
  3  4  1  0  0  0
 38 40  1  0  0  0
 13 14  1  0  0  0
M  END
> <minimizedAffinity>
3.26288

> <CNNscore>
0.3051353991

> <CNNaffinity>
7.4773511887

> <CNN_VS>
2.2816045284

> <CNNaffinity_variance>
0.1689269245

$$$$
[H]OC(=O)C([H])([H])[C@@]([H])(C(=O)C([H])([H])SC([H])([H])c1c([H])c([H])c([H])c([H])c1[H])N([H])C(=O)C([H])(n1c([H])c([H])nc(N([H])C([H])([H])c2nonc2C([H])([H])[H])c1=O)C([H])([H])C([H])([H])[H]


 40 42  0  0  0  0  0  0  0  0999 V2000
   10.1420   42.7657  131.3001 C   0  0  0  0  0  0  0  0  0  0  0  0
   11.0089   41.9576  131.7842 O   0  0  0  0  0  0  0  0  0  0  0  0
   10.5025   43.5805  130.1972 N   0  0  0  0  0  0  0  0  0  0  0  0
    9.7761   44.2375  129.8180 H   0  0  0  0  0  0  0  0  0  0  0  0
    8.7922   42.8642  131.8596 C   0  0  0  0  0  0  0  0  0  0  0  0
    8.2612   44.1932  131.9065 N   0  0  0  0  0  0  0  0  0  0  0  0
    8.1825   44.9062  133.0704 C   0  0  0  0  0  0  0  0  0  0  0  0
    7.6727   46.1826  133.1185 C   0  0  0  0  0  0  0  0  0  0  0  0
    7.2343   46.7519  131.9754 N   0  0  0  0  0  0  0  0  0  0  0  0
    7.2852   46.1026  130.8013 C   0  0  0  0  0  0  0  0  0  0  0  0
    7.8089   44.8176  130.8093 C   0  0  0  0  0  0  0  0  0  0  0  0
    7.8467   44.2315  129.7020 O   0  0  0  0  0  0  0  0  0  0  0  0
    6.8422   46.6788  129.5884 N   0  0  0  0  0  0  0  0  0  0  0  0
    5.9003   46.4742  129.2209 H   0  0  0  0  0  0  0  0  0  0  0  0
    7.7220   47.5549  128.8727 C   0  0  0  0  0  0  0  0  0  0  0  0
    8.4638   48.5066  129.7618 C   0  0  0  0  0  0  0  0  0  0  0  0
    9.7130   48.4381  130.2488 N   0  0  0  0  0  0  0  0  0  0  0  0
    9.9605   49.4791  130.9954 O   0  0  0  0  0  0  0  0  0  0  0  0
    8.9208   50.2450  131.0270 N   0  0  0  0  0  0  0  0  0  0  0  0
    7.9550   49.6825  130.2712 C   0  0  0  0  0  0  0  0  0  0  0  0
    6.5899   50.1872  130.0047 C   0  0  0  0  0  0  0  0  0  0  0  0
    6.7433   41.4515  132.1803 C   0  0  0  0  0  0  0  0  0  0  0  0
    7.8372   41.8559  131.2246 C   0  0  0  0  0  0  0  0  0  0  0  0
   11.8118   43.5475  129.5791 C   0  0  0  0  0  0  0  0  0  0  0  0
   12.6685   44.6722  130.1113 C   0  0  0  0  0  0  0  0  0  0  0  0
   13.8685   44.5496  130.2779 O   0  0  0  0  0  0  0  0  0  0  0  0
   12.0521   45.9824  130.4513 C   0  0  0  0  0  0  0  0  0  0  0  0
   12.6083   46.5681  132.0605 S   0  0  0  0  0  0  0  0  0  0  0  0
   11.2473   46.8265  133.2066 C   0  0  0  0  0  0  0  0  0  0  0  0
   11.1013   45.7485  134.2109 C   0  0  0  0  0  0  0  0  0  0  0  0
   10.3122   45.8472  135.3247 C   0  0  0  0  0  0  0  0  0  0  0  0
   10.2295   44.8064  136.2065 C   0  0  0  0  0  0  0  0  0  0  0  0
   10.9335   43.6263  136.0078 C   0  0  0  0  0  0  0  0  0  0  0  0
   11.7289   43.5434  134.8731 C   0  0  0  0  0  0  0  0  0  0  0  0
   11.8225   44.5847  133.9745 C   0  0  0  0  0  0  0  0  0  0  0  0
   11.7595   43.7491  128.0840 C   0  0  0  0  0  0  0  0  0  0  0  0
   10.4249   44.2271  127.6908 C   0  0  0  0  0  0  0  0  0  0  0  0
    9.3910   43.3043  127.5123 O   0  0  0  0  0  0  0  0  0  0  0  0
   10.1451   45.4199  127.5018 O   0  0  0  0  0  0  0  0  0  0  0  0
    9.6096   42.4708  126.9668 H   0  0  0  0  0  0  0  0  0  0  0  0
 22 23  1  0  0  0
 23  5  1  0  0  0
  5  1  1  0  0  0
  1  2  2  0  0  0
  1  3  1  0  0  0
  3 24  1  0  0  0
 24 36  1  0  0  0
 36 37  1  0  0  0
 37 38  1  0  0  0
 37 39  2  0  0  0
 24 25  1  0  0  0
 25 26  2  0  0  0
 25 27  1  0  0  0
 27 28  1  0  0  0
 28 29  1  0  0  0
 29 30  1  0  0  0
 30 31  2  0  0  0
 31 32  1  0  0  0
 32 33  2  0  0  0
 33 34  1  0  0  0
 34 35  2  0  0  0
  5  6  1  0  0  0
  6  7  1  0  0  0
  7  8  2  0  0  0
  8  9  1  0  0  0
  9 10  2  0  0  0
 10 13  1  0  0  0
 13 15  1  0  0  0
 15 16  1  0  0  0
 16 17  2  0  0  0
 17 18  1  0  0  0
 18 19  1  0  0  0
 19 20  2  0  0  0
 20 21  1  0  0  0
 10 11  1  0  0  0
 11 12  2  0  0  0
 35 30  1  0  0  0
 11  6  1  0  0  0
 20 16  1  0  0  0
  3  4  1  0  0  0
 38 40  1  0  0  0
 13 14  1  0  0  0
M  END
> <minimizedAffinity>
2.22404

> <CNNscore>
0.2688427269

> <CNNaffinity>
7.3833336830

> <CNN_VS>
1.9849555492

> <CNNaffinity_variance>
0.1290643960

$$$$
[H]OC(=O)C([H])([H])[C@@]([H])(C(=O)C([H])([H])SC([H])([H])c1c([H])c([H])c([H])c([H])c1[H])N([H])C(=O)C([H])(n1c([H])c([H])nc(N([H])C([H])([H])c2nonc2C([H])([H])[H])c1=O)C([H])([H])C([H])([H])[H]


 40 42  0  0  0  0  0  0  0  0999 V2000
    9.1842   46.6163  130.5832 C   0  0  0  0  0  0  0  0  0  0  0  0
    8.2409   45.7529  130.6431 O   0  0  0  0  0  0  0  0  0  0  0  0
   10.4857   46.1882  130.2185 N   0  0  0  0  0  0  0  0  0  0  0  0
   11.2444   46.9134  130.1780 H   0  0  0  0  0  0  0  0  0  0  0  0
    8.9466   48.0302  130.8818 C   0  0  0  0  0  0  0  0  0  0  0  0
    7.8624   48.6195  130.1555 N   0  0  0  0  0  0  0  0  0  0  0  0
    6.7438   47.9117  129.8135 C   0  0  0  0  0  0  0  0  0  0  0  0
    5.7011   48.4750  129.1158 C   0  0  0  0  0  0  0  0  0  0  0  0
    5.7851   49.7736  128.7557 N   0  0  0  0  0  0  0  0  0  0  0  0
    6.8576   50.5210  129.0623 C   0  0  0  0  0  0  0  0  0  0  0  0
    7.8806   49.9030  129.7674 C   0  0  0  0  0  0  0  0  0  0  0  0
    8.8711   50.6203  130.0426 O   0  0  0  0  0  0  0  0  0  0  0  0
    6.9668   51.8850  128.7063 N   0  0  0  0  0  0  0  0  0  0  0  0
    6.7726   52.6269  129.3963 H   0  0  0  0  0  0  0  0  0  0  0  0
    7.3527   52.2258  127.3689 C   0  0  0  0  0  0  0  0  0  0  0  0
    7.1972   53.6843  127.0602 C   0  0  0  0  0  0  0  0  0  0  0  0
    6.5627   54.6490  127.7450 N   0  0  0  0  0  0  0  0  0  0  0  0
    6.6630   55.7865  127.1137 O   0  0  0  0  0  0  0  0  0  0  0  0
    7.3431   55.6195  126.0282 N   0  0  0  0  0  0  0  0  0  0  0  0
    7.7016   54.3213  125.9464 C   0  0  0  0  0  0  0  0  0  0  0  0
    8.4866   53.6530  124.8850 C   0  0  0  0  0  0  0  0  0  0  0  0
   10.0303   49.1437  132.8521 C   0  0  0  0  0  0  0  0  0  0  0  0
    8.8776   48.2915  132.3848 C   0  0  0  0  0  0  0  0  0  0  0  0
   10.8108   44.8124  129.9041 C   0  0  0  0  0  0  0  0  0  0  0  0
   12.2652   44.5377  130.2066 C   0  0  0  0  0  0  0  0  0  0  0  0
   13.0933   44.3896  129.3262 O   0  0  0  0  0  0  0  0  0  0  0  0
   12.7280   44.4397  131.6167 C   0  0  0  0  0  0  0  0  0  0  0  0
   12.1051   42.9463  132.4063 S   0  0  0  0  0  0  0  0  0  0  0  0
   10.3299   43.0049  132.6857 C   0  0  0  0  0  0  0  0  0  0  0  0
    9.8923   44.1639  133.4964 C   0  0  0  0  0  0  0  0  0  0  0  0
   10.7418   44.9362  134.2415 C   0  0  0  0  0  0  0  0  0  0  0  0
   10.2605   45.9912  134.9645 C   0  0  0  0  0  0  0  0  0  0  0  0
    8.9101   46.3144  134.9701 C   0  0  0  0  0  0  0  0  0  0  0  0
    8.0630   45.5206  134.2089 C   0  0  0  0  0  0  0  0  0  0  0  0
    8.5335   44.4531  133.4744 C   0  0  0  0  0  0  0  0  0  0  0  0
   10.6319   44.4874  128.4408 C   0  0  0  0  0  0  0  0  0  0  0  0
    9.6322   43.4193  128.2851 C   0  0  0  0  0  0  0  0  0  0  0  0
    9.3168   42.6102  129.3797 O   0  0  0  0  0  0  0  0  0  0  0  0
    9.0347   43.1799  127.2256 O   0  0  0  0  0  0  0  0  0  0  0  0
   10.1005   42.2433  129.9195 H   0  0  0  0  0  0  0  0  0  0  0  0
 22 23  1  0  0  0
 23  5  1  0  0  0
  5  1  1  0  0  0
  1  2  2  0  0  0
  1  3  1  0  0  0
  3 24  1  0  0  0
 24 36  1  0  0  0
 36 37  1  0  0  0
 37 38  1  0  0  0
 37 39  2  0  0  0
 24 25  1  0  0  0
 25 26  2  0  0  0
 25 27  1  0  0  0
 27 28  1  0  0  0
 28 29  1  0  0  0
 29 30  1  0  0  0
 30 31  2  0  0  0
 31 32  1  0  0  0
 32 33  2  0  0  0
 33 34  1  0  0  0
 34 35  2  0  0  0
  5  6  1  0  0  0
  6  7  1  0  0  0
  7  8  2  0  0  0
  8  9  1  0  0  0
  9 10  2  0  0  0
 10 13  1  0  0  0
 13 15  1  0  0  0
 15 16  1  0  0  0
 16 17  2  0  0  0
 17 18  1  0  0  0
 18 19  1  0  0  0
 19 20  2  0  0  0
 20 21  1  0  0  0
 10 11  1  0  0  0
 11 12  2  0  0  0
 35 30  1  0  0  0
 11  6  1  0  0  0
 20 16  1  0  0  0
  3  4  1  0  0  0
 38 40  1  0  0  0
 13 14  1  0  0  0
M  END
> <minimizedAffinity>
-4.01071

> <CNNscore>
0.2680513263

> <CNNaffinity>
7.6238694191

> <CNN_VS>
2.0435883999

> <CNNaffinity_variance>
0.3440436423

$$$$
[H]OC(=O)C([H])([H])[C@@]([H])(C(=O)C([H])([H])SC([H])([H])c1c([H])c([H])c([H])c([H])c1[H])N([H])C(=O)C([H])(n1c([H])c([H])nc(N([H])C([H])([H])c2nonc2C([H])([H])[H])c1=O)C([H])([H])C([H])([H])[H]


 40 42  0  0  0  0  0  0  0  0999 V2000
    8.6374   47.6246  130.3981 C   0  0  0  0  0  0  0  0  0  0  0  0
    9.6421   47.9142  129.6596 O   0  0  0  0  0  0  0  0  0  0  0  0
    8.8588   46.9552  131.6282 N   0  0  0  0  0  0  0  0  0  0  0  0
    8.0197   46.7256  132.2167 H   0  0  0  0  0  0  0  0  0  0  0  0
    7.2710   47.9697  129.9999 C   0  0  0  0  0  0  0  0  0  0  0  0
    7.0063   49.3753  129.9316 N   0  0  0  0  0  0  0  0  0  0  0  0
    6.5068   50.0757  130.9942 C   0  0  0  0  0  0  0  0  0  0  0  0
    6.2514   51.4256  130.9312 C   0  0  0  0  0  0  0  0  0  0  0  0
    6.5029   52.0827  129.7789 N   0  0  0  0  0  0  0  0  0  0  0  0
    6.9936   51.4503  128.7009 C   0  0  0  0  0  0  0  0  0  0  0  0
    7.2333   50.0886  128.8189 C   0  0  0  0  0  0  0  0  0  0  0  0
    7.6915   49.5198  127.8001 O   0  0  0  0  0  0  0  0  0  0  0  0
    7.2753   52.1158  127.4856 N   0  0  0  0  0  0  0  0  0  0  0  0
    7.5601   51.5852  126.6480 H   0  0  0  0  0  0  0  0  0  0  0  0
    7.1593   53.5431  127.4313 C   0  0  0  0  0  0  0  0  0  0  0  0
    7.6947   54.1339  126.1621 C   0  0  0  0  0  0  0  0  0  0  0  0
    8.8716   53.9364  125.5469 N   0  0  0  0  0  0  0  0  0  0  0  0
    8.9376   54.6602  124.4633 O   0  0  0  0  0  0  0  0  0  0  0  0
    7.8458   55.3375  124.3291 N   0  0  0  0  0  0  0  0  0  0  0  0
    7.0336   55.0449  125.3660 C   0  0  0  0  0  0  0  0  0  0  0  0
    5.6799   55.5723  125.6464 C   0  0  0  0  0  0  0  0  0  0  0  0
    5.3325   47.1043  128.6622 C   0  0  0  0  0  0  0  0  0  0  0  0
    6.8339   47.2127  128.7478 C   0  0  0  0  0  0  0  0  0  0  0  0
   10.1743   46.5784  132.1024 C   0  0  0  0  0  0  0  0  0  0  0  0
   10.0768   45.3743  133.0095 C   0  0  0  0  0  0  0  0  0  0  0  0
    9.0474   44.7347  133.1289 O   0  0  0  0  0  0  0  0  0  0  0  0
   11.2610   44.9339  133.7942 C   0  0  0  0  0  0  0  0  0  0  0  0
   12.2022   43.6803  132.9084 S   0  0  0  0  0  0  0  0  0  0  0  0
   12.6757   44.2139  131.2579 C   0  0  0  0  0  0  0  0  0  0  0  0
   11.6217   44.0054  130.2392 C   0  0  0  0  0  0  0  0  0  0  0  0
   10.5850   43.1241  130.3854 C   0  0  0  0  0  0  0  0  0  0  0  0
    9.6499   42.9884  129.3981 C   0  0  0  0  0  0  0  0  0  0  0  0
    9.7162   43.7295  128.2258 C   0  0  0  0  0  0  0  0  0  0  0  0
   10.7743   44.6185  128.0942 C   0  0  0  0  0  0  0  0  0  0  0  0
   11.7252   44.7665  129.0813 C   0  0  0  0  0  0  0  0  0  0  0  0
   10.8310   47.6575  132.9289 C   0  0  0  0  0  0  0  0  0  0  0  0
    9.8604   48.7243  133.2193 C   0  0  0  0  0  0  0  0  0  0  0  0
    8.7763   48.4552  134.0587 O   0  0  0  0  0  0  0  0  0  0  0  0
    9.9378   49.8736  132.7611 O   0  0  0  0  0  0  0  0  0  0  0  0
    8.2639   47.5911  133.8830 H   0  0  0  0  0  0  0  0  0  0  0  0
 22 23  1  0  0  0
 23  5  1  0  0  0
  5  1  1  0  0  0
  1  2  2  0  0  0
  1  3  1  0  0  0
  3 24  1  0  0  0
 24 36  1  0  0  0
 36 37  1  0  0  0
 37 38  1  0  0  0
 37 39  2  0  0  0
 24 25  1  0  0  0
 25 26  2  0  0  0
 25 27  1  0  0  0
 27 28  1  0  0  0
 28 29  1  0  0  0
 29 30  1  0  0  0
 30 31  2  0  0  0
 31 32  1  0  0  0
 32 33  2  0  0  0
 33 34  1  0  0  0
 34 35  2  0  0  0
  5  6  1  0  0  0
  6  7  1  0  0  0
  7  8  2  0  0  0
  8  9  1  0  0  0
  9 10  2  0  0  0
 10 13  1  0  0  0
 13 15  1  0  0  0
 15 16  1  0  0  0
 16 17  2  0  0  0
 17 18  1  0  0  0
 18 19  1  0  0  0
 19 20  2  0  0  0
 20 21  1  0  0  0
 10 11  1  0  0  0
 11 12  2  0  0  0
 35 30  1  0  0  0
 11  6  1  0  0  0
 20 16  1  0  0  0
  3  4  1  0  0  0
 38 40  1  0  0  0
 13 14  1  0  0  0
M  END
> <minimizedAffinity>
-2.74249

> <CNNscore>
0.2447740138

> <CNNaffinity>
7.1741437912

> <CNN_VS>
1.7560440302

> <CNNaffinity_variance>
0.2108599693

$$$$
[H]OC(=O)C([H])([H])[C@@]([H])(C(=O)C([H])([H])SC([H])([H])c1c([H])c([H])c([H])c([H])c1[H])N([H])C(=O)C([H])(n1c([H])c([H])nc(N([H])C([H])([H])c2nonc2C([H])([H])[H])c1=O)C([H])([H])C([H])([H])[H]


 40 42  0  0  0  0  0  0  0  0999 V2000
    8.0786   46.2285  129.5705 C   0  0  0  0  0  0  0  0  0  0  0  0
    7.1680   46.0003  128.7001 O   0  0  0  0  0  0  0  0  0  0  0  0
    8.9902   45.1935  129.8991 N   0  0  0  0  0  0  0  0  0  0  0  0
    9.7275   45.4025  130.6173 H   0  0  0  0  0  0  0  0  0  0  0  0
    8.1971   47.5309  130.2296 C   0  0  0  0  0  0  0  0  0  0  0  0
    7.2116   48.4916  129.8346 N   0  0  0  0  0  0  0  0  0  0  0  0
    5.8780   48.1932  129.7930 C   0  0  0  0  0  0  0  0  0  0  0  0
    4.9293   49.1138  129.4137 C   0  0  0  0  0  0  0  0  0  0  0  0
    5.3293   50.3567  129.0700 N   0  0  0  0  0  0  0  0  0  0  0  0
    6.6244   50.7102  129.0907 C   0  0  0  0  0  0  0  0  0  0  0  0
    7.5396   49.7430  129.4813 C   0  0  0  0  0  0  0  0  0  0  0  0
    8.7423   50.0959  129.4933 O   0  0  0  0  0  0  0  0  0  0  0  0
    7.0693   52.0071  128.7454 N   0  0  0  0  0  0  0  0  0  0  0  0
    7.1435   52.7466  129.4609 H   0  0  0  0  0  0  0  0  0  0  0  0
    7.4177   52.2830  127.3830 C   0  0  0  0  0  0  0  0  0  0  0  0
    7.2006   53.7139  126.9933 C   0  0  0  0  0  0  0  0  0  0  0  0
    6.4977   54.6790  127.6073 N   0  0  0  0  0  0  0  0  0  0  0  0
    6.5621   55.7863  126.9202 O   0  0  0  0  0  0  0  0  0  0  0  0
    7.2840   55.5987  125.8655 N   0  0  0  0  0  0  0  0  0  0  0  0
    7.7085   54.3180  125.8629 C   0  0  0  0  0  0  0  0  0  0  0  0
    8.5591   53.6369  124.8619 C   0  0  0  0  0  0  0  0  0  0  0  0
    7.6984   46.1175  132.2422 C   0  0  0  0  0  0  0  0  0  0  0  0
    8.3306   47.3927  131.7446 C   0  0  0  0  0  0  0  0  0  0  0  0
    8.9495   43.8774  129.2960 C   0  0  0  0  0  0  0  0  0  0  0  0
    8.7851   42.8199  130.3622 C   0  0  0  0  0  0  0  0  0  0  0  0
    8.1734   41.7863  130.1608 O   0  0  0  0  0  0  0  0  0  0  0  0
    9.3791   43.0218  131.7107 C   0  0  0  0  0  0  0  0  0  0  0  0
   10.9999   42.2474  131.8333 S   0  0  0  0  0  0  0  0  0  0  0  0
   12.2106   43.3086  132.6339 C   0  0  0  0  0  0  0  0  0  0  0  0
   11.6380   44.5611  133.1775 C   0  0  0  0  0  0  0  0  0  0  0  0
   11.7814   45.7851  132.5824 C   0  0  0  0  0  0  0  0  0  0  0  0
   11.2220   46.8969  133.1468 C   0  0  0  0  0  0  0  0  0  0  0  0
   10.4973   46.8268  134.3291 C   0  0  0  0  0  0  0  0  0  0  0  0
   10.3619   45.5775  134.9191 C   0  0  0  0  0  0  0  0  0  0  0  0
   10.9203   44.4470  134.3618 C   0  0  0  0  0  0  0  0  0  0  0  0
   10.2247   43.5261  128.5685 C   0  0  0  0  0  0  0  0  0  0  0  0
   11.1480   44.6711  128.5977 C   0  0  0  0  0  0  0  0  0  0  0  0
   12.2921   44.6093  129.3973 O   0  0  0  0  0  0  0  0  0  0  0  0
   10.9792   45.7128  127.9472 O   0  0  0  0  0  0  0  0  0  0  0  0
   12.1671   44.2705  130.3511 H   0  0  0  0  0  0  0  0  0  0  0  0
 22 23  1  0  0  0
 23  5  1  0  0  0
  5  1  1  0  0  0
  1  2  2  0  0  0
  1  3  1  0  0  0
  3 24  1  0  0  0
 24 36  1  0  0  0
 36 37  1  0  0  0
 37 38  1  0  0  0
 37 39  2  0  0  0
 24 25  1  0  0  0
 25 26  2  0  0  0
 25 27  1  0  0  0
 27 28  1  0  0  0
 28 29  1  0  0  0
 29 30  1  0  0  0
 30 31  2  0  0  0
 31 32  1  0  0  0
 32 33  2  0  0  0
 33 34  1  0  0  0
 34 35  2  0  0  0
  5  6  1  0  0  0
  6  7  1  0  0  0
  7  8  2  0  0  0
  8  9  1  0  0  0
  9 10  2  0  0  0
 10 13  1  0  0  0
 13 15  1  0  0  0
 15 16  1  0  0  0
 16 17  2  0  0  0
 17 18  1  0  0  0
 18 19  1  0  0  0
 19 20  2  0  0  0
 20 21  1  0  0  0
 10 11  1  0  0  0
 11 12  2  0  0  0
 35 30  1  0  0  0
 11  6  1  0  0  0
 20 16  1  0  0  0
  3  4  1  0  0  0
 38 40  1  0  0  0
 13 14  1  0  0  0
M  END
> <minimizedAffinity>
-2.60415

> <CNNscore>
0.2438463122

> <CNNaffinity>
7.4351296425

> <CNN_VS>
1.8130289316

> <CNNaffinity_variance>
0.4135626256

$$$$
[H]OC(=O)C([H])([H])[C@@]([H])(C(=O)C([H])([H])SC([H])([H])c1c([H])c([H])c([H])c([H])c1[H])N([H])C(=O)C([H])(n1c([H])c([H])nc(N([H])C([H])([H])c2nonc2C([H])([H])[H])c1=O)C([H])([H])C([H])([H])[H]


 40 42  0  0  0  0  0  0  0  0999 V2000
    9.8334   46.8329  129.5830 C   0  0  0  0  0  0  0  0  0  0  0  0
    9.6097   46.7447  128.3256 O   0  0  0  0  0  0  0  0  0  0  0  0
   10.5581   45.7980  130.2264 N   0  0  0  0  0  0  0  0  0  0  0  0
   10.7280   45.8904  131.2587 H   0  0  0  0  0  0  0  0  0  0  0  0
    9.3587   47.9760  130.3658 C   0  0  0  0  0  0  0  0  0  0  0  0
    8.1431   48.5628  129.8881 N   0  0  0  0  0  0  0  0  0  0  0  0
    6.9813   47.8497  129.7830 C   0  0  0  0  0  0  0  0  0  0  0  0
    5.8124   48.4107  129.3244 C   0  0  0  0  0  0  0  0  0  0  0  0
    5.8121   49.7122  128.9650 N   0  0  0  0  0  0  0  0  0  0  0  0
    6.9212   50.4647  129.0455 C   0  0  0  0  0  0  0  0  0  0  0  0
    8.0727   49.8490  129.5150 C   0  0  0  0  0  0  0  0  0  0  0  0
    9.0951   50.5711  129.5818 O   0  0  0  0  0  0  0  0  0  0  0  0
    6.9461   51.8317  128.6853 N   0  0  0  0  0  0  0  0  0  0  0  0
    6.6897   52.5614  129.3681 H   0  0  0  0  0  0  0  0  0  0  0  0
    7.3340   52.1931  127.3539 C   0  0  0  0  0  0  0  0  0  0  0  0
    7.2057   53.6605  127.0764 C   0  0  0  0  0  0  0  0  0  0  0  0
    6.6031   54.6249  127.7899 N   0  0  0  0  0  0  0  0  0  0  0  0
    6.7187   55.7723  127.1796 O   0  0  0  0  0  0  0  0  0  0  0  0
    7.3781   55.6124  126.0805 N   0  0  0  0  0  0  0  0  0  0  0  0
    7.7068   54.3086  125.9675 C   0  0  0  0  0  0  0  0  0  0  0  0
    8.4605   53.6448  124.8809 C   0  0  0  0  0  0  0  0  0  0  0  0
    9.8399   48.8364  132.6733 C   0  0  0  0  0  0  0  0  0  0  0  0
    9.3333   47.6709  131.8619 C   0  0  0  0  0  0  0  0  0  0  0  0
   11.0674   44.6339  129.5316 C   0  0  0  0  0  0  0  0  0  0  0  0
   10.2259   43.4223  129.8575 C   0  0  0  0  0  0  0  0  0  0  0  0
   10.7125   42.3155  130.0028 O   0  0  0  0  0  0  0  0  0  0  0  0
    8.7527   43.5570  130.0112 C   0  0  0  0  0  0  0  0  0  0  0  0
    8.1942   42.8721  131.5799 S   0  0  0  0  0  0  0  0  0  0  0  0
    9.4353   43.0135  132.8731 C   0  0  0  0  0  0  0  0  0  0  0  0
    9.3192   44.2511  133.6775 C   0  0  0  0  0  0  0  0  0  0  0  0
    8.1708   44.9887  133.7786 C   0  0  0  0  0  0  0  0  0  0  0  0
    8.1430   46.1215  134.5425 C   0  0  0  0  0  0  0  0  0  0  0  0
    9.2636   46.5602  135.2351 C   0  0  0  0  0  0  0  0  0  0  0  0
   10.4196   45.8001  135.1213 C   0  0  0  0  0  0  0  0  0  0  0  0
   10.4632   44.6552  134.3546 C   0  0  0  0  0  0  0  0  0  0  0  0
   12.4743   44.2740  129.9435 C   0  0  0  0  0  0  0  0  0  0  0  0
   12.6327   44.4589  131.3944 C   0  0  0  0  0  0  0  0  0  0  0  0
   12.7276   43.3374  132.2224 O   0  0  0  0  0  0  0  0  0  0  0  0
   12.6894   45.5663  131.9487 O   0  0  0  0  0  0  0  0  0  0  0  0
   12.0502   42.5917  132.0635 H   0  0  0  0  0  0  0  0  0  0  0  0
 22 23  1  0  0  0
 23  5  1  0  0  0
  5  1  1  0  0  0
  1  2  2  0  0  0
  1  3  1  0  0  0
  3 24  1  0  0  0
 24 36  1  0  0  0
 36 37  1  0  0  0
 37 38  1  0  0  0
 37 39  2  0  0  0
 24 25  1  0  0  0
 25 26  2  0  0  0
 25 27  1  0  0  0
 27 28  1  0  0  0
 28 29  1  0  0  0
 29 30  1  0  0  0
 30 31  2  0  0  0
 31 32  1  0  0  0
 32 33  2  0  0  0
 33 34  1  0  0  0
 34 35  2  0  0  0
  5  6  1  0  0  0
  6  7  1  0  0  0
  7  8  2  0  0  0
  8  9  1  0  0  0
  9 10  2  0  0  0
 10 13  1  0  0  0
 13 15  1  0  0  0
 15 16  1  0  0  0
 16 17  2  0  0  0
 17 18  1  0  0  0
 18 19  1  0  0  0
 19 20  2  0  0  0
 20 21  1  0  0  0
 10 11  1  0  0  0
 11 12  2  0  0  0
 35 30  1  0  0  0
 11  6  1  0  0  0
 20 16  1  0  0  0
  3  4  1  0  0  0
 38 40  1  0  0  0
 13 14  1  0  0  0
M  END
> <minimizedAffinity>
-2.78092

> <CNNscore>
0.2423831075

> <CNNaffinity>
7.6367874146

> <CNN_VS>
1.8510283232

> <CNNaffinity_variance>
0.3091193140

$$$$
[H]OC(=O)C([H])([H])[C@@]([H])(C(=O)C([H])([H])SC([H])([H])c1c([H])c([H])c([H])c([H])c1[H])N([H])C(=O)C([H])(n1c([H])c([H])nc(N([H])C([H])([H])c2nonc2C([H])([H])[H])c1=O)C([H])([H])C([H])([H])[H]


 40 42  0  0  0  0  0  0  0  0999 V2000
    8.5707   47.0282  129.4952 C   0  0  0  0  0  0  0  0  0  0  0  0
    9.6100   47.7283  129.2331 O   0  0  0  0  0  0  0  0  0  0  0  0
    8.6833   45.6151  129.5244 N   0  0  0  0  0  0  0  0  0  0  0  0
    7.8174   45.0610  129.7393 H   0  0  0  0  0  0  0  0  0  0  0  0
    7.2747   47.6547  129.7646 C   0  0  0  0  0  0  0  0  0  0  0  0
    7.3108   49.0829  129.8609 N   0  0  0  0  0  0  0  0  0  0  0  0
    7.4537   49.7296  131.0570 C   0  0  0  0  0  0  0  0  0  0  0  0
    7.4884   51.1011  131.1525 C   0  0  0  0  0  0  0  0  0  0  0  0
    7.3773   51.8352  130.0247 N   0  0  0  0  0  0  0  0  0  0  0  0
    7.2347   51.2583  128.8207 C   0  0  0  0  0  0  0  0  0  0  0  0
    7.2062   49.8715  128.7813 C   0  0  0  0  0  0  0  0  0  0  0  0
    7.0727   49.3555  127.6468 O   0  0  0  0  0  0  0  0  0  0  0  0
    7.1262   52.0027  127.6236 N   0  0  0  0  0  0  0  0  0  0  0  0
    7.0605   51.5263  126.7109 H   0  0  0  0  0  0  0  0  0  0  0  0
    7.1083   53.4340  127.6939 C   0  0  0  0  0  0  0  0  0  0  0  0
    7.6279   54.0953  126.4533 C   0  0  0  0  0  0  0  0  0  0  0  0
    8.7897   53.9210  125.8036 N   0  0  0  0  0  0  0  0  0  0  0  0
    8.8455   54.7098  124.7658 O   0  0  0  0  0  0  0  0  0  0  0  0
    7.7612   55.4084  124.6955 N   0  0  0  0  0  0  0  0  0  0  0  0
    6.9648   55.0627  125.7284 C   0  0  0  0  0  0  0  0  0  0  0  0
    5.6244   55.5895  126.0678 C   0  0  0  0  0  0  0  0  0  0  0  0
    4.8601   47.0145  129.5278 C   0  0  0  0  0  0  0  0  0  0  0  0
    6.1871   47.1415  128.8234 C   0  0  0  0  0  0  0  0  0  0  0  0
    9.9239   44.9114  129.2735 C   0  0  0  0  0  0  0  0  0  0  0  0
    9.6915   43.4189  129.2992 C   0  0  0  0  0  0  0  0  0  0  0  0
   10.0143   42.6969  128.3732 O   0  0  0  0  0  0  0  0  0  0  0  0
    9.0492   42.7844  130.4811 C   0  0  0  0  0  0  0  0  0  0  0  0
   10.2773   42.2565  131.6873 S   0  0  0  0  0  0  0  0  0  0  0  0
    9.9045   42.8365  133.3478 C   0  0  0  0  0  0  0  0  0  0  0  0
    9.6718   44.2963  133.4307 C   0  0  0  0  0  0  0  0  0  0  0  0
    8.4859   44.8980  133.1070 C   0  0  0  0  0  0  0  0  0  0  0  0
    8.3491   46.2538  133.2102 C   0  0  0  0  0  0  0  0  0  0  0  0
    9.3939   47.0603  133.6412 C   0  0  0  0  0  0  0  0  0  0  0  0
   10.5894   46.4334  133.9652 C   0  0  0  0  0  0  0  0  0  0  0  0
   10.7427   45.0670  133.8664 C   0  0  0  0  0  0  0  0  0  0  0  0
   10.9722   45.1774  130.3267 C   0  0  0  0  0  0  0  0  0  0  0  0
   12.2824   44.6983  129.8594 C   0  0  0  0  0  0  0  0  0  0  0  0
   13.1697   44.1263  130.7748 O   0  0  0  0  0  0  0  0  0  0  0  0
   12.6649   44.7674  128.6823 O   0  0  0  0  0  0  0  0  0  0  0  0
   13.3024   44.6224  131.6560 H   0  0  0  0  0  0  0  0  0  0  0  0
 22 23  1  0  0  0
 23  5  1  0  0  0
  5  1  1  0  0  0
  1  2  2  0  0  0
  1  3  1  0  0  0
  3 24  1  0  0  0
 24 36  1  0  0  0
 36 37  1  0  0  0
 37 38  1  0  0  0
 37 39  2  0  0  0
 24 25  1  0  0  0
 25 26  2  0  0  0
 25 27  1  0  0  0
 27 28  1  0  0  0
 28 29  1  0  0  0
 29 30  1  0  0  0
 30 31  2  0  0  0
 31 32  1  0  0  0
 32 33  2  0  0  0
 33 34  1  0  0  0
 34 35  2  0  0  0
  5  6  1  0  0  0
  6  7  1  0  0  0
  7  8  2  0  0  0
  8  9  1  0  0  0
  9 10  2  0  0  0
 10 13  1  0  0  0
 13 15  1  0  0  0
 15 16  1  0  0  0
 16 17  2  0  0  0
 17 18  1  0  0  0
 18 19  1  0  0  0
 19 20  2  0  0  0
 20 21  1  0  0  0
 10 11  1  0  0  0
 11 12  2  0  0  0
 35 30  1  0  0  0
 11  6  1  0  0  0
 20 16  1  0  0  0
  3  4  1  0  0  0
 38 40  1  0  0  0
 13 14  1  0  0  0
M  END
> <minimizedAffinity>
-3.24005

> <CNNscore>
0.2341692895

> <CNNaffinity>
7.2296843529

> <CNN_VS>
1.6929700375

> <CNNaffinity_variance>
0.2894520462

$$$$
[H]OC(=O)C([H])([H])[C@@]([H])(C(=O)C([H])([H])SC([H])([H])c1c([H])c([H])c([H])c([H])c1[H])N([H])C(=O)C([H])(n1c([H])c([H])nc(N([H])C([H])([H])c2nonc2C([H])([H])[H])c1=O)C([H])([H])C([H])([H])[H]


 40 42  0  0  0  0  0  0  0  0999 V2000
    8.7539   47.2215  132.0067 C   0  0  0  0  0  0  0  0  0  0  0  0
    8.3372   47.9060  133.0049 O   0  0  0  0  0  0  0  0  0  0  0  0
    9.2099   45.8967  132.2240 N   0  0  0  0  0  0  0  0  0  0  0  0
    9.5492   45.3546  131.3908 H   0  0  0  0  0  0  0  0  0  0  0  0
    8.7682   47.7765  130.6515 C   0  0  0  0  0  0  0  0  0  0  0  0
    7.4849   48.1730  130.1554 N   0  0  0  0  0  0  0  0  0  0  0  0
    7.1914   49.4727  129.8488 C   0  0  0  0  0  0  0  0  0  0  0  0
    5.9596   49.8563  129.3725 C   0  0  0  0  0  0  0  0  0  0  0  0
    5.0061   48.9159  129.2014 N   0  0  0  0  0  0  0  0  0  0  0  0
    5.2336   47.6233  129.4846 C   0  0  0  0  0  0  0  0  0  0  0  0
    6.4934   47.2909  129.9620 C   0  0  0  0  0  0  0  0  0  0  0  0
    6.6827   46.0787  130.2190 O   0  0  0  0  0  0  0  0  0  0  0  0
    4.2565   46.6172  129.3054 N   0  0  0  0  0  0  0  0  0  0  0  0
    4.2993   45.9793  128.4957 H   0  0  0  0  0  0  0  0  0  0  0  0
    3.2011   46.4937  130.2670 C   0  0  0  0  0  0  0  0  0  0  0  0
    1.9233   45.9731  129.6815 C   0  0  0  0  0  0  0  0  0  0  0  0
    1.6609   44.7976  129.0885 N   0  0  0  0  0  0  0  0  0  0  0  0
    0.4126   44.7548  128.7113 O   0  0  0  0  0  0  0  0  0  0  0  0
   -0.1731   45.8611  129.0302 N   0  0  0  0  0  0  0  0  0  0  0  0
    0.7280   46.6589  129.6402 C   0  0  0  0  0  0  0  0  0  0  0  0
    0.5269   48.0212  130.1816 C   0  0  0  0  0  0  0  0  0  0  0  0
   11.0720   48.5369  131.2926 C   0  0  0  0  0  0  0  0  0  0  0  0
    9.8367   48.8554  130.4889 C   0  0  0  0  0  0  0  0  0  0  0  0
    9.2286   45.2665  133.5278 C   0  0  0  0  0  0  0  0  0  0  0  0
   10.6225   45.3105  134.1085 C   0  0  0  0  0  0  0  0  0  0  0  0
   10.8348   45.1487  135.2966 O   0  0  0  0  0  0  0  0  0  0  0  0
   11.7918   45.5582  133.2232 C   0  0  0  0  0  0  0  0  0  0  0  0
   12.2972   44.0540  132.3724 S   0  0  0  0  0  0  0  0  0  0  0  0
   12.8188   44.3632  130.6798 C   0  0  0  0  0  0  0  0  0  0  0  0
   11.6973   44.4495  129.7170 C   0  0  0  0  0  0  0  0  0  0  0  0
   11.3984   45.5729  128.9948 C   0  0  0  0  0  0  0  0  0  0  0  0
   10.3450   45.5739  128.1242 C   0  0  0  0  0  0  0  0  0  0  0  0
    9.5495   44.4505  127.9428 C   0  0  0  0  0  0  0  0  0  0  0  0
    9.8668   43.3200  128.6834 C   0  0  0  0  0  0  0  0  0  0  0  0
   10.9262   43.3036  129.5654 C   0  0  0  0  0  0  0  0  0  0  0  0
    8.8554   43.8046  133.4779 C   0  0  0  0  0  0  0  0  0  0  0  0
    8.4016   43.4510  132.1238 C   0  0  0  0  0  0  0  0  0  0  0  0
    8.5424   42.1353  131.6752 O   0  0  0  0  0  0  0  0  0  0  0  0
    7.8903   44.2570  131.3329 O   0  0  0  0  0  0  0  0  0  0  0  0
    9.4441   41.6884  131.8409 H   0  0  0  0  0  0  0  0  0  0  0  0
 22 23  1  0  0  0
 23  5  1  0  0  0
  5  1  1  0  0  0
  1  2  2  0  0  0
  1  3  1  0  0  0
  3 24  1  0  0  0
 24 36  1  0  0  0
 36 37  1  0  0  0
 37 38  1  0  0  0
 37 39  2  0  0  0
 24 25  1  0  0  0
 25 26  2  0  0  0
 25 27  1  0  0  0
 27 28  1  0  0  0
 28 29  1  0  0  0
 29 30  1  0  0  0
 30 31  2  0  0  0
 31 32  1  0  0  0
 32 33  2  0  0  0
 33 34  1  0  0  0
 34 35  2  0  0  0
  5  6  1  0  0  0
  6  7  1  0  0  0
  7  8  2  0  0  0
  8  9  1  0  0  0
  9 10  2  0  0  0
 10 13  1  0  0  0
 13 15  1  0  0  0
 15 16  1  0  0  0
 16 17  2  0  0  0
 17 18  1  0  0  0
 18 19  1  0  0  0
 19 20  2  0  0  0
 20 21  1  0  0  0
 10 11  1  0  0  0
 11 12  2  0  0  0
 35 30  1  0  0  0
 11  6  1  0  0  0
 20 16  1  0  0  0
  3  4  1  0  0  0
 38 40  1  0  0  0
 13 14  1  0  0  0
M  END
> <minimizedAffinity>
4.52473

> <CNNscore>
0.2149147242

> <CNNaffinity>
7.5682516098

> <CNN_VS>
1.6265287399

> <CNNaffinity_variance>
0.1745191664

$$$$
[H]OC(=O)C([H])([H])[C@@]([H])(C(=O)C([H])([H])SC([H])([H])c1c([H])c([H])c([H])c([H])c1[H])N([H])C(=O)C([H])(n1c([H])c([H])nc(N([H])C([H])([H])c2nonc2C([H])([H])[H])c1=O)C([H])([H])C([H])([H])[H]


 40 42  0  0  0  0  0  0  0  0999 V2000
    9.0612   49.4682  131.4493 C   0  0  0  0  0  0  0  0  0  0  0  0
    8.7639   50.6728  131.7646 O   0  0  0  0  0  0  0  0  0  0  0  0
    8.2324   48.7731  130.5327 N   0  0  0  0  0  0  0  0  0  0  0  0
    8.4942   47.7853  130.2903 H   0  0  0  0  0  0  0  0  0  0  0  0
   10.2348   48.7977  132.0130 C   0  0  0  0  0  0  0  0  0  0  0  0
    9.9432   47.8608  133.0558 N   0  0  0  0  0  0  0  0  0  0  0  0
    8.7560   47.8705  133.7338 C   0  0  0  0  0  0  0  0  0  0  0  0
    8.4734   46.9720  134.7360 C   0  0  0  0  0  0  0  0  0  0  0  0
    9.4015   46.0473  135.0620 N   0  0  0  0  0  0  0  0  0  0  0  0
   10.5861   45.9869  134.4327 C   0  0  0  0  0  0  0  0  0  0  0  0
   10.8194   46.9168  133.4295 C   0  0  0  0  0  0  0  0  0  0  0  0
   11.9315   46.8409  132.8561 O   0  0  0  0  0  0  0  0  0  0  0  0
   11.5715   45.0230  134.7473 N   0  0  0  0  0  0  0  0  0  0  0  0
   12.5190   45.3124  135.0348 H   0  0  0  0  0  0  0  0  0  0  0  0
   11.2361   43.6323  134.6618 C   0  0  0  0  0  0  0  0  0  0  0  0
   11.1784   43.1216  133.2538 C   0  0  0  0  0  0  0  0  0  0  0  0
   12.1535   42.9977  132.3395 N   0  0  0  0  0  0  0  0  0  0  0  0
   11.6676   42.5153  131.2288 O   0  0  0  0  0  0  0  0  0  0  0  0
   10.3994   42.3108  131.3651 N   0  0  0  0  0  0  0  0  0  0  0  0
   10.0419   42.6739  132.6144 C   0  0  0  0  0  0  0  0  0  0  0  0
    8.6993   42.6231  133.2342 C   0  0  0  0  0  0  0  0  0  0  0  0
   11.0621   49.0355  129.6561 C   0  0  0  0  0  0  0  0  0  0  0  0
   11.1416   48.2259  130.9255 C   0  0  0  0  0  0  0  0  0  0  0  0
    7.0553   49.3577  129.9244 C   0  0  0  0  0  0  0  0  0  0  0  0
    6.1573   48.2730  129.3774 C   0  0  0  0  0  0  0  0  0  0  0  0
    4.9778   48.4649  129.1437 O   0  0  0  0  0  0  0  0  0  0  0  0
    6.7056   46.9172  129.1064 C   0  0  0  0  0  0  0  0  0  0  0  0
    6.8304   45.9487  130.6191 S   0  0  0  0  0  0  0  0  0  0  0  0
    8.5282   45.5113  131.0179 C   0  0  0  0  0  0  0  0  0  0  0  0
    9.2734   44.9203  129.8832 C   0  0  0  0  0  0  0  0  0  0  0  0
    8.7731   43.9371  129.0731 C   0  0  0  0  0  0  0  0  0  0  0  0
    9.5239   43.4421  128.0441 C   0  0  0  0  0  0  0  0  0  0  0  0
   10.8048   43.9117  127.7859 C   0  0  0  0  0  0  0  0  0  0  0  0
   11.2963   44.9089  128.6173 C   0  0  0  0  0  0  0  0  0  0  0  0
   10.5511   45.4182  129.6592 C   0  0  0  0  0  0  0  0  0  0  0  0
    7.3827   50.2456  128.7483 C   0  0  0  0  0  0  0  0  0  0  0  0
    6.8913   51.6093  129.0000 C   0  0  0  0  0  0  0  0  0  0  0  0
    6.8739   52.5358  127.9543 O   0  0  0  0  0  0  0  0  0  0  0  0
    6.4814   52.0049  130.1010 O   0  0  0  0  0  0  0  0  0  0  0  0
    7.7153   52.5960  127.3810 H   0  0  0  0  0  0  0  0  0  0  0  0
 22 23  1  0  0  0
 23  5  1  0  0  0
  5  1  1  0  0  0
  1  2  2  0  0  0
  1  3  1  0  0  0
  3 24  1  0  0  0
 24 36  1  0  0  0
 36 37  1  0  0  0
 37 38  1  0  0  0
 37 39  2  0  0  0
 24 25  1  0  0  0
 25 26  2  0  0  0
 25 27  1  0  0  0
 27 28  1  0  0  0
 28 29  1  0  0  0
 29 30  1  0  0  0
 30 31  2  0  0  0
 31 32  1  0  0  0
 32 33  2  0  0  0
 33 34  1  0  0  0
 34 35  2  0  0  0
  5  6  1  0  0  0
  6  7  1  0  0  0
  7  8  2  0  0  0
  8  9  1  0  0  0
  9 10  2  0  0  0
 10 13  1  0  0  0
 13 15  1  0  0  0
 15 16  1  0  0  0
 16 17  2  0  0  0
 17 18  1  0  0  0
 18 19  1  0  0  0
 19 20  2  0  0  0
 20 21  1  0  0  0
 10 11  1  0  0  0
 11 12  2  0  0  0
 35 30  1  0  0  0
 11  6  1  0  0  0
 20 16  1  0  0  0
  3  4  1  0  0  0
 38 40  1  0  0  0
 13 14  1  0  0  0
M  END
> <minimizedAffinity>
-3.40816

> <CNNscore>
0.2020774931

> <CNNaffinity>
7.6232171059

> <CNN_VS>
1.5404806137

> <CNNaffinity_variance>
0.6806938648

$$$$
[H]OC1(C([H])([H])N([H])S(=O)(=O)c2c([H])c([H])c(C([H])([H])[H])c(-c3c([H])nc(N([H])[H])c(-c4oc(C([H])([H])[H])nc4[H])c3[H])c2[H])C([H])([H])C([H])([H])OC([H])([H])C1([H])[H]


 36 39  0  0  0  0  0  0  0  0999 V2000
    9.4023   45.8009  133.6261 C   0  0  0  0  0  0  0  0  0  0  0  0
    9.2389   47.0575  133.0260 C   0  0  0  0  0  0  0  0  0  0  0  0
    9.4330   48.2351  133.6991 C   0  0  0  0  0  0  0  0  0  0  0  0
    9.8044   48.1786  135.0209 C   0  0  0  0  0  0  0  0  0  0  0  0
    9.9852   46.9757  135.6809 C   0  0  0  0  0  0  0  0  0  0  0  0
    9.7759   45.7983  134.9532 C   0  0  0  0  0  0  0  0  0  0  0  0
    9.9899   44.5366  135.6865 C   0  0  0  0  0  0  0  0  0  0  0  0
    9.3427   43.4000  130.7449 C   0  0  0  0  0  0  0  0  0  0  0  0
    9.5548   44.5188  131.5186 C   0  0  0  0  0  0  0  0  0  0  0  0
    9.1669   44.5841  132.8542 C   0  0  0  0  0  0  0  0  0  0  0  0
    8.5532   43.4803  133.3939 C   0  0  0  0  0  0  0  0  0  0  0  0
    8.3309   42.3609  132.6530 N   0  0  0  0  0  0  0  0  0  0  0  0
    8.7188   42.3323  131.3658 C   0  0  0  0  0  0  0  0  0  0  0  0
    8.5063   41.1777  130.5469 N   0  0  0  0  0  0  0  0  0  0  0  0
    9.2629   40.4625  130.5152 H   0  0  0  0  0  0  0  0  0  0  0  0
    7.6435   41.0240  129.9911 H   0  0  0  0  0  0  0  0  0  0  0  0
   12.0187   43.4539  126.5326 C   0  0  0  0  0  0  0  0  0  0  0  0
   10.8927   43.3681  127.5260 C   0  0  0  0  0  0  0  0  0  0  0  0
    9.6191   43.1514  127.1706 N   0  0  0  0  0  0  0  0  0  0  0  0
    8.8918   43.1356  128.3007 C   0  0  0  0  0  0  0  0  0  0  0  0
    9.7537   43.3479  129.3519 C   0  0  0  0  0  0  0  0  0  0  0  0
   10.9385   43.4791  128.8127 O   0  0  0  0  0  0  0  0  0  0  0  0
    9.2241   49.7702  132.9335 S   0  0  0  0  0  0  0  0  0  0  0  0
   10.4564   50.2257  132.2073 O   0  0  0  0  0  0  0  0  0  0  0  0
    8.9785   50.7954  134.0317 O   0  0  0  0  0  0  0  0  0  0  0  0
    7.8892   49.8318  131.8812 N   0  0  0  0  0  0  0  0  0  0  0  0
    7.1049   50.3799  132.2404 H   0  0  0  0  0  0  0  0  0  0  0  0
    8.2529   50.1041  130.5101 C   0  0  0  0  0  0  0  0  0  0  0  0
    8.1261   48.8584  129.6601 C   0  0  0  0  0  0  0  0  0  0  0  0
    7.6754   49.1892  128.3867 O   0  0  0  0  0  0  0  0  0  0  0  0
    7.1984   47.8605  130.3163 C   0  0  0  0  0  0  0  0  0  0  0  0
    7.2835   46.5043  129.6985 C   0  0  0  0  0  0  0  0  0  0  0  0
    8.1096   46.5567  128.5603 O   0  0  0  0  0  0  0  0  0  0  0  0
    9.4215   46.8254  128.9908 C   0  0  0  0  0  0  0  0  0  0  0  0
    9.5111   48.2031  129.6073 C   0  0  0  0  0  0  0  0  0  0  0  0
    8.3292   48.9821  127.6774 H   0  0  0  0  0  0  0  0  0  0  0  0
 17 18  1  0  0  0
 18 19  2  0  0  0
 19 20  1  0  0  0
 20 21  2  0  0  0
 21 22  1  0  0  0
 21  8  1  0  0  0
  8  9  2  0  0  0
  9 10  1  0  0  0
 10 11  2  0  0  0
 11 12  1  0  0  0
 12 13  2  0  0  0
 13 14  1  0  0  0
 10  1  1  0  0  0
  1  2  2  0  0  0
  2  3  1  0  0  0
  3  4  2  0  0  0
  4  5  1  0  0  0
  5  6  2  0  0  0
  6  7  1  0  0  0
  3 23  1  0  0  0
 23 24  2  0  0  0
 23 25  2  0  0  0
 23 26  1  0  0  0
 26 28  1  0  0  0
 28 29  1  0  0  0
 29 30  1  0  0  0
 29 31  1  0  0  0
 31 32  1  0  0  0
 32 33  1  0  0  0
 33 34  1  0  0  0
 34 35  1  0  0  0
 22 18  1  0  0  0
 13  8  1  0  0  0
  6  1  1  0  0  0
 35 29  1  0  0  0
 14 15  1  0  0  0
 14 16  1  0  0  0
 26 27  1  0  0  0
 30 36  1  0  0  0
M  END
> <minimizedAffinity>
8.73254

> <CNNscore>
0.4261218607

> <CNNaffinity>
7.3001680374

> <CNN_VS>
3.1107611656

> <CNNaffinity_variance>
0.3727823794

$$$$
[H]OC1(C([H])([H])N([H])S(=O)(=O)c2c([H])c([H])c(C([H])([H])[H])c(-c3c([H])nc(N([H])[H])c(-c4oc(C([H])([H])[H])nc4[H])c3[H])c2[H])C([H])([H])C([H])([H])OC([H])([H])C1([H])[H]


 36 39  0  0  0  0  0  0  0  0999 V2000
    9.1341   45.9367  132.1858 C   0  0  0  0  0  0  0  0  0  0  0  0
    9.3553   47.3203  132.1344 C   0  0  0  0  0  0  0  0  0  0  0  0
    9.0409   48.1636  133.1677 C   0  0  0  0  0  0  0  0  0  0  0  0
    8.4844   47.6263  134.3034 C   0  0  0  0  0  0  0  0  0  0  0  0
    8.2368   46.2703  134.4276 C   0  0  0  0  0  0  0  0  0  0  0  0
    8.5744   45.4472  133.3468 C   0  0  0  0  0  0  0  0  0  0  0  0
    8.3072   44.0072  133.5207 C   0  0  0  0  0  0  0  0  0  0  0  0
   11.1877   44.1929  129.5760 C   0  0  0  0  0  0  0  0  0  0  0  0
   10.8110   44.9620  130.6539 C   0  0  0  0  0  0  0  0  0  0  0  0
    9.4810   45.0963  131.0433 C   0  0  0  0  0  0  0  0  0  0  0  0
    8.5318   44.4279  130.3095 C   0  0  0  0  0  0  0  0  0  0  0  0
    8.8752   43.6606  129.2395 N   0  0  0  0  0  0  0  0  0  0  0  0
   10.1695   43.5531  128.8913 C   0  0  0  0  0  0  0  0  0  0  0  0
   10.5791   42.7579  127.7739 N   0  0  0  0  0  0  0  0  0  0  0  0
   10.8186   41.7601  127.9532 H   0  0  0  0  0  0  0  0  0  0  0  0
   10.6471   43.1268  126.8062 H   0  0  0  0  0  0  0  0  0  0  0  0
   15.3836   43.3568  127.0063 C   0  0  0  0  0  0  0  0  0  0  0  0
   14.3996   43.7073  128.0886 C   0  0  0  0  0  0  0  0  0  0  0  0
   14.7706   44.1008  129.3145 N   0  0  0  0  0  0  0  0  0  0  0  0
   13.6451   44.3279  130.0129 C   0  0  0  0  0  0  0  0  0  0  0  0
   12.5807   44.0632  129.1823 C   0  0  0  0  0  0  0  0  0  0  0  0
   13.1082   43.6954  128.0429 O   0  0  0  0  0  0  0  0  0  0  0  0
    9.3246   49.8658  133.0764 S   0  0  0  0  0  0  0  0  0  0  0  0
   10.7338   50.2363  133.4373 O   0  0  0  0  0  0  0  0  0  0  0  0
    8.4340   50.5308  134.1164 O   0  0  0  0  0  0  0  0  0  0  0  0
    8.9277   50.5437  131.5677 N   0  0  0  0  0  0  0  0  0  0  0  0
    9.6016   50.3313  130.8292 H   0  0  0  0  0  0  0  0  0  0  0  0
    7.5411   50.3629  131.2056 C   0  0  0  0  0  0  0  0  0  0  0  0
    7.4188   49.6674  129.8671 C   0  0  0  0  0  0  0  0  0  0  0  0
    7.4209   50.6024  128.8376 O   0  0  0  0  0  0  0  0  0  0  0  0
    6.1666   48.8205  129.8216 C   0  0  0  0  0  0  0  0  0  0  0  0
    6.1560   47.8721  128.6690 C   0  0  0  0  0  0  0  0  0  0  0  0
    7.2641   48.1269  127.8396 O   0  0  0  0  0  0  0  0  0  0  0  0
    8.4266   47.7898  128.5563 C   0  0  0  0  0  0  0  0  0  0  0  0
    8.6059   48.7047  129.7467 C   0  0  0  0  0  0  0  0  0  0  0  0
    8.1951   50.5121  128.2325 H   0  0  0  0  0  0  0  0  0  0  0  0
 17 18  1  0  0  0
 18 19  2  0  0  0
 19 20  1  0  0  0
 20 21  2  0  0  0
 21 22  1  0  0  0
 21  8  1  0  0  0
  8  9  2  0  0  0
  9 10  1  0  0  0
 10 11  2  0  0  0
 11 12  1  0  0  0
 12 13  2  0  0  0
 13 14  1  0  0  0
 10  1  1  0  0  0
  1  2  2  0  0  0
  2  3  1  0  0  0
  3  4  2  0  0  0
  4  5  1  0  0  0
  5  6  2  0  0  0
  6  7  1  0  0  0
  3 23  1  0  0  0
 23 24  2  0  0  0
 23 25  2  0  0  0
 23 26  1  0  0  0
 26 28  1  0  0  0
 28 29  1  0  0  0
 29 30  1  0  0  0
 29 31  1  0  0  0
 31 32  1  0  0  0
 32 33  1  0  0  0
 33 34  1  0  0  0
 34 35  1  0  0  0
 22 18  1  0  0  0
 13  8  1  0  0  0
  6  1  1  0  0  0
 35 29  1  0  0  0
 14 15  1  0  0  0
 14 16  1  0  0  0
 26 27  1  0  0  0
 30 36  1  0  0  0
M  END
> <minimizedAffinity>
8.45268

> <CNNscore>
0.4164637625

> <CNNaffinity>
7.3600249290

> <CNN_VS>
3.0651836395

> <CNNaffinity_variance>
0.2047862709

$$$$
[H]OC1(C([H])([H])N([H])S(=O)(=O)c2c([H])c([H])c(C([H])([H])[H])c(-c3c([H])nc(N([H])[H])c(-c4oc(C([H])([H])[H])nc4[H])c3[H])c2[H])C([H])([H])C([H])([H])OC([H])([H])C1([H])[H]


 36 39  0  0  0  0  0  0  0  0999 V2000
    9.6222   48.0767  131.5014 C   0  0  0  0  0  0  0  0  0  0  0  0
    8.7051   48.7840  130.7112 C   0  0  0  0  0  0  0  0  0  0  0  0
    8.3645   50.0890  130.9531 C   0  0  0  0  0  0  0  0  0  0  0  0
    8.9497   50.7303  132.0182 C   0  0  0  0  0  0  0  0  0  0  0  0
    9.8638   50.0979  132.8427 C   0  0  0  0  0  0  0  0  0  0  0  0
   10.1815   48.7648  132.5572 C   0  0  0  0  0  0  0  0  0  0  0  0
   11.1681   48.1283  133.4499 C   0  0  0  0  0  0  0  0  0  0  0  0
    9.6881   44.3349  131.7524 C   0  0  0  0  0  0  0  0  0  0  0  0
    9.4151   45.6630  131.9909 C   0  0  0  0  0  0  0  0  0  0  0  0
    9.9311   46.6828  131.1957 C   0  0  0  0  0  0  0  0  0  0  0  0
   10.7376   46.3241  130.1435 C   0  0  0  0  0  0  0  0  0  0  0  0
   11.0242   45.0194  129.8841 N   0  0  0  0  0  0  0  0  0  0  0  0
   10.5087   44.0600  130.6727 C   0  0  0  0  0  0  0  0  0  0  0  0
   10.7818   42.6744  130.4394 N   0  0  0  0  0  0  0  0  0  0  0  0
   10.1261   42.1502  129.8228 H   0  0  0  0  0  0  0  0  0  0  0  0
   11.5933   42.1761  130.8521 H   0  0  0  0  0  0  0  0  0  0  0  0
    6.6231   41.0842  133.9765 C   0  0  0  0  0  0  0  0  0  0  0  0
    7.8337   41.8739  133.5608 C   0  0  0  0  0  0  0  0  0  0  0  0
    9.0528   41.6699  134.0780 N   0  0  0  0  0  0  0  0  0  0  0  0
    9.8843   42.5425  133.4835 C   0  0  0  0  0  0  0  0  0  0  0  0
    9.1416   43.2820  132.5922 C   0  0  0  0  0  0  0  0  0  0  0  0
    7.9192   42.8265  132.6916 O   0  0  0  0  0  0  0  0  0  0  0  0
    7.2303   50.9360  129.9619 S   0  0  0  0  0  0  0  0  0  0  0  0
    7.5125   52.4087  129.8909 O   0  0  0  0  0  0  0  0  0  0  0  0
    5.8636   50.7996  130.6179 O   0  0  0  0  0  0  0  0  0  0  0  0
    7.0969   50.3067  128.3873 N   0  0  0  0  0  0  0  0  0  0  0  0
    7.4516   50.9323  127.6609 H   0  0  0  0  0  0  0  0  0  0  0  0
    7.5300   48.9329  128.2810 C   0  0  0  0  0  0  0  0  0  0  0  0
    6.3987   47.9830  128.6097 C   0  0  0  0  0  0  0  0  0  0  0  0
    5.9765   47.3225  127.4610 O   0  0  0  0  0  0  0  0  0  0  0  0
    5.2510   48.7276  129.2543 C   0  0  0  0  0  0  0  0  0  0  0  0
    4.2548   47.8126  129.8855 C   0  0  0  0  0  0  0  0  0  0  0  0
    4.5815   46.4783  129.5799 O   0  0  0  0  0  0  0  0  0  0  0  0
    5.7930   46.1715  130.2255 C   0  0  0  0  0  0  0  0  0  0  0  0
    6.9262   46.9955  129.6570 C   0  0  0  0  0  0  0  0  0  0  0  0
    6.1190   46.3470  127.4993 H   0  0  0  0  0  0  0  0  0  0  0  0
 17 18  1  0  0  0
 18 19  2  0  0  0
 19 20  1  0  0  0
 20 21  2  0  0  0
 21 22  1  0  0  0
 21  8  1  0  0  0
  8  9  2  0  0  0
  9 10  1  0  0  0
 10 11  2  0  0  0
 11 12  1  0  0  0
 12 13  2  0  0  0
 13 14  1  0  0  0
 10  1  1  0  0  0
  1  2  2  0  0  0
  2  3  1  0  0  0
  3  4  2  0  0  0
  4  5  1  0  0  0
  5  6  2  0  0  0
  6  7  1  0  0  0
  3 23  1  0  0  0
 23 24  2  0  0  0
 23 25  2  0  0  0
 23 26  1  0  0  0
 26 28  1  0  0  0
 28 29  1  0  0  0
 29 30  1  0  0  0
 29 31  1  0  0  0
 31 32  1  0  0  0
 32 33  1  0  0  0
 33 34  1  0  0  0
 34 35  1  0  0  0
 22 18  1  0  0  0
 13  8  1  0  0  0
  6  1  1  0  0  0
 35 29  1  0  0  0
 14 15  1  0  0  0
 14 16  1  0  0  0
 26 27  1  0  0  0
 30 36  1  0  0  0
M  END
> <minimizedAffinity>
5.45182

> <CNNscore>
0.3987090290

> <CNNaffinity>
7.4106035233

> <CNN_VS>
2.9546744823

> <CNNaffinity_variance>
0.3458437622

$$$$
[H]OC1(C([H])([H])N([H])S(=O)(=O)c2c([H])c([H])c(C([H])([H])[H])c(-c3c([H])nc(N([H])[H])c(-c4oc(C([H])([H])[H])nc4[H])c3[H])c2[H])C([H])([H])C([H])([H])OC([H])([H])C1([H])[H]


 36 39  0  0  0  0  0  0  0  0999 V2000
    9.4723   48.3170  131.3283 C   0  0  0  0  0  0  0  0  0  0  0  0
    8.5462   48.8205  130.4039 C   0  0  0  0  0  0  0  0  0  0  0  0
    8.0725   50.1055  130.4490 C   0  0  0  0  0  0  0  0  0  0  0  0
    8.5273   50.9350  131.4456 C   0  0  0  0  0  0  0  0  0  0  0  0
    9.4414   50.5093  132.3936 C   0  0  0  0  0  0  0  0  0  0  0  0
    9.8977   49.1887  132.3081 C   0  0  0  0  0  0  0  0  0  0  0  0
   10.8798   48.7751  133.3278 C   0  0  0  0  0  0  0  0  0  0  0  0
   10.9304   44.9997  132.2969 C   0  0  0  0  0  0  0  0  0  0  0  0
   10.4751   46.2980  132.3417 C   0  0  0  0  0  0  0  0  0  0  0  0
    9.9267   46.9328  131.2304 C   0  0  0  0  0  0  0  0  0  0  0  0
    9.8493   46.2164  130.0613 C   0  0  0  0  0  0  0  0  0  0  0  0
   10.2914   44.9316  129.9879 N   0  0  0  0  0  0  0  0  0  0  0  0
   10.8154   44.3493  131.0808 C   0  0  0  0  0  0  0  0  0  0  0  0
   11.2936   43.0005  131.0523 N   0  0  0  0  0  0  0  0  0  0  0  0
   10.6202   42.2443  131.2968 H   0  0  0  0  0  0  0  0  0  0  0  0
   12.2682   42.7464  130.8021 H   0  0  0  0  0  0  0  0  0  0  0  0
   11.5872   42.9741  136.8106 C   0  0  0  0  0  0  0  0  0  0  0  0
   11.8007   43.4742  135.4082 C   0  0  0  0  0  0  0  0  0  0  0  0
   12.9719   43.3714  134.7657 N   0  0  0  0  0  0  0  0  0  0  0  0
   12.8027   43.9153  133.5484 C   0  0  0  0  0  0  0  0  0  0  0  0
   11.5004   44.3513  133.4660 C   0  0  0  0  0  0  0  0  0  0  0  0
   10.9576   44.0538  134.6186 O   0  0  0  0  0  0  0  0  0  0  0  0
    6.9307   50.6993  129.2957 S   0  0  0  0  0  0  0  0  0  0  0  0
    7.2936   52.0581  128.7709 O   0  0  0  0  0  0  0  0  0  0  0  0
    5.6015   50.8674  130.0183 O   0  0  0  0  0  0  0  0  0  0  0  0
    6.6635   49.6397  127.9923 N   0  0  0  0  0  0  0  0  0  0  0  0
    6.6214   50.1052  127.0833 H   0  0  0  0  0  0  0  0  0  0  0  0
    7.4885   48.4550  128.0389 C   0  0  0  0  0  0  0  0  0  0  0  0
    6.7923   47.3413  128.7906 C   0  0  0  0  0  0  0  0  0  0  0  0
    7.3807   46.1175  128.4903 O   0  0  0  0  0  0  0  0  0  0  0  0
    5.3158   47.3225  128.4636 C   0  0  0  0  0  0  0  0  0  0  0  0
    4.5301   46.4691  129.4031 C   0  0  0  0  0  0  0  0  0  0  0  0
    5.4083   45.7857  130.2646 O   0  0  0  0  0  0  0  0  0  0  0  0
    6.0269   46.7379  131.0948 C   0  0  0  0  0  0  0  0  0  0  0  0
    6.9080   47.6623  130.2853 C   0  0  0  0  0  0  0  0  0  0  0  0
    7.7991   45.6854  129.2725 H   0  0  0  0  0  0  0  0  0  0  0  0
 17 18  1  0  0  0
 18 19  2  0  0  0
 19 20  1  0  0  0
 20 21  2  0  0  0
 21 22  1  0  0  0
 21  8  1  0  0  0
  8  9  2  0  0  0
  9 10  1  0  0  0
 10 11  2  0  0  0
 11 12  1  0  0  0
 12 13  2  0  0  0
 13 14  1  0  0  0
 10  1  1  0  0  0
  1  2  2  0  0  0
  2  3  1  0  0  0
  3  4  2  0  0  0
  4  5  1  0  0  0
  5  6  2  0  0  0
  6  7  1  0  0  0
  3 23  1  0  0  0
 23 24  2  0  0  0
 23 25  2  0  0  0
 23 26  1  0  0  0
 26 28  1  0  0  0
 28 29  1  0  0  0
 29 30  1  0  0  0
 29 31  1  0  0  0
 31 32  1  0  0  0
 32 33  1  0  0  0
 33 34  1  0  0  0
 34 35  1  0  0  0
 22 18  1  0  0  0
 13  8  1  0  0  0
  6  1  1  0  0  0
 35 29  1  0  0  0
 14 15  1  0  0  0
 14 16  1  0  0  0
 26 27  1  0  0  0
 30 36  1  0  0  0
M  END
> <minimizedAffinity>
6.57589

> <CNNscore>
0.3418442011

> <CNNaffinity>
7.3502874374

> <CNN_VS>
2.5126531124

> <CNNaffinity_variance>
0.5112970471

$$$$
[H]OC1(C([H])([H])N([H])S(=O)(=O)c2c([H])c([H])c(C([H])([H])[H])c(-c3c([H])nc(N([H])[H])c(-c4oc(C([H])([H])[H])nc4[H])c3[H])c2[H])C([H])([H])C([H])([H])OC([H])([H])C1([H])[H]


 36 39  0  0  0  0  0  0  0  0999 V2000
    9.6449   48.3774  132.3559 C   0  0  0  0  0  0  0  0  0  0  0  0
    8.7687   48.9425  131.4185 C   0  0  0  0  0  0  0  0  0  0  0  0
    8.5000   50.2851  131.3652 C   0  0  0  0  0  0  0  0  0  0  0  0
    9.1184   51.1117  132.2720 C   0  0  0  0  0  0  0  0  0  0  0  0
    9.9958   50.6272  133.2264 C   0  0  0  0  0  0  0  0  0  0  0  0
   10.2402   49.2490  133.2431 C   0  0  0  0  0  0  0  0  0  0  0  0
   11.1896   48.7715  134.2658 C   0  0  0  0  0  0  0  0  0  0  0  0
    9.8777   44.8274  131.1676 C   0  0  0  0  0  0  0  0  0  0  0  0
    9.6855   46.1900  131.2059 C   0  0  0  0  0  0  0  0  0  0  0  0
    9.8772   46.9360  132.3659 C   0  0  0  0  0  0  0  0  0  0  0  0
   10.2716   46.2644  133.4972 C   0  0  0  0  0  0  0  0  0  0  0  0
   10.4693   44.9182  133.4884 N   0  0  0  0  0  0  0  0  0  0  0  0
   10.2750   44.2289  132.3503 C   0  0  0  0  0  0  0  0  0  0  0  0
   10.4703   42.8121  132.2923 N   0  0  0  0  0  0  0  0  0  0  0  0
   11.4166   42.4655  132.0289 H   0  0  0  0  0  0  0  0  0  0  0  0
    9.7207   42.1245  132.4982 H   0  0  0  0  0  0  0  0  0  0  0  0
   10.4924   41.7897  127.2558 C   0  0  0  0  0  0  0  0  0  0  0  0
    9.9216   42.7570  128.2562 C   0  0  0  0  0  0  0  0  0  0  0  0
    8.6836   43.2607  128.1620 N   0  0  0  0  0  0  0  0  0  0  0  0
    8.5107   44.0805  129.2129 C   0  0  0  0  0  0  0  0  0  0  0  0
    9.6732   44.0631  129.9485 C   0  0  0  0  0  0  0  0  0  0  0  0
   10.4765   43.2473  129.3153 O   0  0  0  0  0  0  0  0  0  0  0  0
    7.4148   50.9539  130.1984 S   0  0  0  0  0  0  0  0  0  0  0  0
    7.4991   52.4508  130.1231 O   0  0  0  0  0  0  0  0  0  0  0  0
    5.9996   50.6338  130.6589 O   0  0  0  0  0  0  0  0  0  0  0  0
    7.5973   50.2956  128.6407 N   0  0  0  0  0  0  0  0  0  0  0  0
    8.2574   50.8066  128.0510 H   0  0  0  0  0  0  0  0  0  0  0  0
    7.7564   48.8600  128.6407 C   0  0  0  0  0  0  0  0  0  0  0  0
    6.5197   48.1796  129.1864 C   0  0  0  0  0  0  0  0  0  0  0  0
    5.6246   49.1268  129.6719 O   0  0  0  0  0  0  0  0  0  0  0  0
    6.8921   47.1887  130.2665 C   0  0  0  0  0  0  0  0  0  0  0  0
    5.7699   46.2673  130.6127 C   0  0  0  0  0  0  0  0  0  0  0  0
    4.6045   46.6692  129.9339 O   0  0  0  0  0  0  0  0  0  0  0  0
    4.8126   46.4619  128.5583 C   0  0  0  0  0  0  0  0  0  0  0  0
    5.9047   47.3697  128.0392 C   0  0  0  0  0  0  0  0  0  0  0  0
    4.7698   49.1418  129.1792 H   0  0  0  0  0  0  0  0  0  0  0  0
 17 18  1  0  0  0
 18 19  2  0  0  0
 19 20  1  0  0  0
 20 21  2  0  0  0
 21 22  1  0  0  0
 21  8  1  0  0  0
  8  9  2  0  0  0
  9 10  1  0  0  0
 10 11  2  0  0  0
 11 12  1  0  0  0
 12 13  2  0  0  0
 13 14  1  0  0  0
 10  1  1  0  0  0
  1  2  2  0  0  0
  2  3  1  0  0  0
  3  4  2  0  0  0
  4  5  1  0  0  0
  5  6  2  0  0  0
  6  7  1  0  0  0
  3 23  1  0  0  0
 23 24  2  0  0  0
 23 25  2  0  0  0
 23 26  1  0  0  0
 26 28  1  0  0  0
 28 29  1  0  0  0
 29 30  1  0  0  0
 29 31  1  0  0  0
 31 32  1  0  0  0
 32 33  1  0  0  0
 33 34  1  0  0  0
 34 35  1  0  0  0
 22 18  1  0  0  0
 13  8  1  0  0  0
  6  1  1  0  0  0
 35 29  1  0  0  0
 14 15  1  0  0  0
 14 16  1  0  0  0
 26 27  1  0  0  0
 30 36  1  0  0  0
M  END
> <minimizedAffinity>
6.87477

> <CNNscore>
0.3260433078

> <CNNaffinity>
7.2424535751

> <CNN_VS>
2.3613536358

> <CNNaffinity_variance>
0.6793271899

$$$$
[H]OC1(C([H])([H])N([H])S(=O)(=O)c2c([H])c([H])c(C([H])([H])[H])c(-c3c([H])nc(N([H])[H])c(-c4oc(C([H])([H])[H])nc4[H])c3[H])c2[H])C([H])([H])C([H])([H])OC([H])([H])C1([H])[H]


 36 39  0  0  0  0  0  0  0  0999 V2000
   10.2207   47.5931  132.6971 C   0  0  0  0  0  0  0  0  0  0  0  0
   10.4097   46.2039  132.6860 C   0  0  0  0  0  0  0  0  0  0  0  0
   11.0887   45.5369  133.6718 C   0  0  0  0  0  0  0  0  0  0  0  0
   11.6060   46.2647  134.7162 C   0  0  0  0  0  0  0  0  0  0  0  0
   11.4596   47.6386  134.7960 C   0  0  0  0  0  0  0  0  0  0  0  0
   10.7584   48.2773  133.7665 C   0  0  0  0  0  0  0  0  0  0  0  0
   10.6123   49.7396  133.8922 C   0  0  0  0  0  0  0  0  0  0  0  0
    7.5856   48.2737  130.1160 C   0  0  0  0  0  0  0  0  0  0  0  0
    8.2975   47.7065  131.1488 C   0  0  0  0  0  0  0  0  0  0  0  0
    9.4976   48.2430  131.6077 C   0  0  0  0  0  0  0  0  0  0  0  0
    9.9652   49.3777  130.9911 C   0  0  0  0  0  0  0  0  0  0  0  0
    9.2825   49.9598  129.9682 N   0  0  0  0  0  0  0  0  0  0  0  0
    8.1264   49.4150  129.5503 C   0  0  0  0  0  0  0  0  0  0  0  0
    7.3732   49.9913  128.4782 N   0  0  0  0  0  0  0  0  0  0  0  0
    6.6459   50.6956  128.7232 H   0  0  0  0  0  0  0  0  0  0  0  0
    7.5180   49.7416  127.4813 H   0  0  0  0  0  0  0  0  0  0  0  0
    3.0505   46.2022  129.8940 C   0  0  0  0  0  0  0  0  0  0  0  0
    4.3794   46.8083  129.5350 C   0  0  0  0  0  0  0  0  0  0  0  0
    4.7825   46.9896  128.2701 N   0  0  0  0  0  0  0  0  0  0  0  0
    6.0041   47.5475  128.3219 C   0  0  0  0  0  0  0  0  0  0  0  0
    6.3342   47.7012  129.6486 C   0  0  0  0  0  0  0  0  0  0  0  0
    5.3123   47.2361  130.3203 O   0  0  0  0  0  0  0  0  0  0  0  0
   11.3065   43.8230  133.6319 S   0  0  0  0  0  0  0  0  0  0  0  0
   11.3549   43.2152  135.0037 O   0  0  0  0  0  0  0  0  0  0  0  0
   12.6660   43.5528  133.0027 O   0  0  0  0  0  0  0  0  0  0  0  0
   10.1466   43.0095  132.6907 N   0  0  0  0  0  0  0  0  0  0  0  0
    9.2498   43.4959  132.6290 H   0  0  0  0  0  0  0  0  0  0  0  0
   10.6684   42.5198  131.4360 C   0  0  0  0  0  0  0  0  0  0  0  0
   10.2883   43.4407  130.2969 C   0  0  0  0  0  0  0  0  0  0  0  0
    9.2556   44.2866  130.6867 O   0  0  0  0  0  0  0  0  0  0  0  0
    9.8953   42.6399  129.0756 C   0  0  0  0  0  0  0  0  0  0  0  0
    9.8224   43.4746  127.8403 C   0  0  0  0  0  0  0  0  0  0  0  0
    9.9995   44.8296  128.1766 O   0  0  0  0  0  0  0  0  0  0  0  0
   11.3215   44.9930  128.6289 C   0  0  0  0  0  0  0  0  0  0  0  0
   11.5441   44.2341  129.9175 C   0  0  0  0  0  0  0  0  0  0  0  0
    9.5132   45.2391  130.6878 H   0  0  0  0  0  0  0  0  0  0  0  0
 17 18  1  0  0  0
 18 19  2  0  0  0
 19 20  1  0  0  0
 20 21  2  0  0  0
 21 22  1  0  0  0
 21  8  1  0  0  0
  8  9  2  0  0  0
  9 10  1  0  0  0
 10 11  2  0  0  0
 11 12  1  0  0  0
 12 13  2  0  0  0
 13 14  1  0  0  0
 10  1  1  0  0  0
  1  2  2  0  0  0
  2  3  1  0  0  0
  3  4  2  0  0  0
  4  5  1  0  0  0
  5  6  2  0  0  0
  6  7  1  0  0  0
  3 23  1  0  0  0
 23 24  2  0  0  0
 23 25  2  0  0  0
 23 26  1  0  0  0
 26 28  1  0  0  0
 28 29  1  0  0  0
 29 30  1  0  0  0
 29 31  1  0  0  0
 31 32  1  0  0  0
 32 33  1  0  0  0
 33 34  1  0  0  0
 34 35  1  0  0  0
 22 18  1  0  0  0
 13  8  1  0  0  0
  6  1  1  0  0  0
 35 29  1  0  0  0
 14 15  1  0  0  0
 14 16  1  0  0  0
 26 27  1  0  0  0
 30 36  1  0  0  0
M  END
> <minimizedAffinity>
0.69070

> <CNNscore>
0.3216513693

> <CNNaffinity>
7.6929321289

> <CNN_VS>
2.4744422436

> <CNNaffinity_variance>
0.2412348241

$$$$
[H]OC1(C([H])([H])N([H])S(=O)(=O)c2c([H])c([H])c(C([H])([H])[H])c(-c3c([H])nc(N([H])[H])c(-c4oc(C([H])([H])[H])nc4[H])c3[H])c2[H])C([H])([H])C([H])([H])OC([H])([H])C1([H])[H]


 36 39  0  0  0  0  0  0  0  0999 V2000
    9.3782   45.6726  129.0057 C   0  0  0  0  0  0  0  0  0  0  0  0
    9.0251   44.5918  129.8260 C   0  0  0  0  0  0  0  0  0  0  0  0
    9.4685   43.3140  129.6062 C   0  0  0  0  0  0  0  0  0  0  0  0
   10.2959   43.0851  128.5332 C   0  0  0  0  0  0  0  0  0  0  0  0
   10.6878   44.1015  127.6796 C   0  0  0  0  0  0  0  0  0  0  0  0
   10.2104   45.3907  127.9433 C   0  0  0  0  0  0  0  0  0  0  0  0
   10.6591   46.4494  127.0196 C   0  0  0  0  0  0  0  0  0  0  0  0
    8.8499   48.9680  130.7174 C   0  0  0  0  0  0  0  0  0  0  0  0
    9.3173   47.7128  130.3995 C   0  0  0  0  0  0  0  0  0  0  0  0
    8.8598   47.0078  129.2894 C   0  0  0  0  0  0  0  0  0  0  0  0
    7.9091   47.6083  128.5009 C   0  0  0  0  0  0  0  0  0  0  0  0
    7.4291   48.8480  128.7909 N   0  0  0  0  0  0  0  0  0  0  0  0
    7.8934   49.5006  129.8710 C   0  0  0  0  0  0  0  0  0  0  0  0
    7.4188   50.8061  130.2164 N   0  0  0  0  0  0  0  0  0  0  0  0
    7.9332   51.6249  129.8291 H   0  0  0  0  0  0  0  0  0  0  0  0
    6.5961   50.9704  130.8273 H   0  0  0  0  0  0  0  0  0  0  0  0
    9.8674   52.5192  134.0733 C   0  0  0  0  0  0  0  0  0  0  0  0
    9.7853   51.2101  133.3371 C   0  0  0  0  0  0  0  0  0  0  0  0
   10.3498   50.0815  133.7873 N   0  0  0  0  0  0  0  0  0  0  0  0
   10.0799   49.1199  132.8880 C   0  0  0  0  0  0  0  0  0  0  0  0
    9.3377   49.6908  131.8801 C   0  0  0  0  0  0  0  0  0  0  0  0
    9.1990   50.9477  132.2157 O   0  0  0  0  0  0  0  0  0  0  0  0
    9.0167   42.0005  130.6342 S   0  0  0  0  0  0  0  0  0  0  0  0
    9.4461   40.6684  130.0915 O   0  0  0  0  0  0  0  0  0  0  0  0
    7.4957   41.9654  130.6837 O   0  0  0  0  0  0  0  0  0  0  0  0
    9.5677   42.1661  132.2349 N   0  0  0  0  0  0  0  0  0  0  0  0
    9.1223   41.5240  132.8936 H   0  0  0  0  0  0  0  0  0  0  0  0
   11.0056   42.2549  132.3393 C   0  0  0  0  0  0  0  0  0  0  0  0
   11.4230   43.5828  132.9329 C   0  0  0  0  0  0  0  0  0  0  0  0
   12.3037   43.3812  133.9902 O   0  0  0  0  0  0  0  0  0  0  0  0
   10.2111   44.3666  133.3847 C   0  0  0  0  0  0  0  0  0  0  0  0
   10.5275   45.7957  133.6774 C   0  0  0  0  0  0  0  0  0  0  0  0
   11.9177   45.9969  133.5928 O   0  0  0  0  0  0  0  0  0  0  0  0
   12.2981   45.8248  132.2495 C   0  0  0  0  0  0  0  0  0  0  0  0
   12.0788   44.3948  131.8099 C   0  0  0  0  0  0  0  0  0  0  0  0
   13.2005   43.7585  133.8260 H   0  0  0  0  0  0  0  0  0  0  0  0
 17 18  1  0  0  0
 18 19  2  0  0  0
 19 20  1  0  0  0
 20 21  2  0  0  0
 21 22  1  0  0  0
 21  8  1  0  0  0
  8  9  2  0  0  0
  9 10  1  0  0  0
 10 11  2  0  0  0
 11 12  1  0  0  0
 12 13  2  0  0  0
 13 14  1  0  0  0
 10  1  1  0  0  0
  1  2  2  0  0  0
  2  3  1  0  0  0
  3  4  2  0  0  0
  4  5  1  0  0  0
  5  6  2  0  0  0
  6  7  1  0  0  0
  3 23  1  0  0  0
 23 24  2  0  0  0
 23 25  2  0  0  0
 23 26  1  0  0  0
 26 28  1  0  0  0
 28 29  1  0  0  0
 29 30  1  0  0  0
 29 31  1  0  0  0
 31 32  1  0  0  0
 32 33  1  0  0  0
 33 34  1  0  0  0
 34 35  1  0  0  0
 22 18  1  0  0  0
 13  8  1  0  0  0
  6  1  1  0  0  0
 35 29  1  0  0  0
 14 15  1  0  0  0
 14 16  1  0  0  0
 26 27  1  0  0  0
 30 36  1  0  0  0
M  END
> <minimizedAffinity>
1.92777

> <CNNscore>
0.3002233803

> <CNNaffinity>
7.5009827614

> <CNN_VS>
2.2519702911

> <CNNaffinity_variance>
0.5148354769

$$$$
[H]OC1(C([H])([H])N([H])S(=O)(=O)c2c([H])c([H])c(C([H])([H])[H])c(-c3c([H])nc(N([H])[H])c(-c4oc(C([H])([H])[H])nc4[H])c3[H])c2[H])C([H])([H])C([H])([H])OC([H])([H])C1([H])[H]


 36 39  0  0  0  0  0  0  0  0999 V2000
    9.9366   46.4868  133.2605 C   0  0  0  0  0  0  0  0  0  0  0  0
   10.5686   45.4571  132.5491 C   0  0  0  0  0  0  0  0  0  0  0  0
   10.9678   44.2840  133.1339 C   0  0  0  0  0  0  0  0  0  0  0  0
   10.7369   44.1121  134.4776 C   0  0  0  0  0  0  0  0  0  0  0  0
   10.1182   45.0833  135.2453 C   0  0  0  0  0  0  0  0  0  0  0  0
    9.7274   46.2652  134.6052 C   0  0  0  0  0  0  0  0  0  0  0  0
    9.0606   47.2713  135.4529 C   0  0  0  0  0  0  0  0  0  0  0  0
    8.0268   48.8649  131.0774 C   0  0  0  0  0  0  0  0  0  0  0  0
    8.4263   47.7340  131.7532 C   0  0  0  0  0  0  0  0  0  0  0  0
    9.5479   47.7176  132.5780 C   0  0  0  0  0  0  0  0  0  0  0  0
   10.2629   48.8834  132.7042 C   0  0  0  0  0  0  0  0  0  0  0  0
    9.8913   50.0162  132.0483 N   0  0  0  0  0  0  0  0  0  0  0  0
    8.8023   49.9964  131.2597 C   0  0  0  0  0  0  0  0  0  0  0  0
    8.3725   51.1627  130.5499 N   0  0  0  0  0  0  0  0  0  0  0  0
    7.6920   51.7929  131.0239 H   0  0  0  0  0  0  0  0  0  0  0  0
    8.7046   51.4045  129.5968 H   0  0  0  0  0  0  0  0  0  0  0  0
    3.8369   50.1495  128.6895 C   0  0  0  0  0  0  0  0  0  0  0  0
    5.0466   49.4036  129.1818 C   0  0  0  0  0  0  0  0  0  0  0  0
    5.3643   48.1701  128.7660 N   0  0  0  0  0  0  0  0  0  0  0  0
    6.4925   47.8171  129.4054 C   0  0  0  0  0  0  0  0  0  0  0  0
    6.8534   48.8655  130.2199 C   0  0  0  0  0  0  0  0  0  0  0  0
    5.9401   49.7838  130.0347 O   0  0  0  0  0  0  0  0  0  0  0  0
   11.7452   43.0317  132.2319 S   0  0  0  0  0  0  0  0  0  0  0  0
   11.0591   41.7044  132.3773 O   0  0  0  0  0  0  0  0  0  0  0  0
   13.1399   42.8516  132.8144 O   0  0  0  0  0  0  0  0  0  0  0  0
   11.9333   43.3961  130.5811 N   0  0  0  0  0  0  0  0  0  0  0  0
   12.8982   43.3289  130.2506 H   0  0  0  0  0  0  0  0  0  0  0  0
   10.9487   42.7588  129.7381 C   0  0  0  0  0  0  0  0  0  0  0  0
    9.9706   43.7740  129.1877 C   0  0  0  0  0  0  0  0  0  0  0  0
    9.5056   43.3671  127.9418 O   0  0  0  0  0  0  0  0  0  0  0  0
   10.6153   45.1393  129.1013 C   0  0  0  0  0  0  0  0  0  0  0  0
    9.6221   46.2303  128.8751 C   0  0  0  0  0  0  0  0  0  0  0  0
    8.3499   45.6705  128.6543 O   0  0  0  0  0  0  0  0  0  0  0  0
    7.9318   45.0627  129.8520 C   0  0  0  0  0  0  0  0  0  0  0  0
    8.8236   43.8919  130.1982 C   0  0  0  0  0  0  0  0  0  0  0  0
    8.5349   43.1908  127.9282 H   0  0  0  0  0  0  0  0  0  0  0  0
 17 18  1  0  0  0
 18 19  2  0  0  0
 19 20  1  0  0  0
 20 21  2  0  0  0
 21 22  1  0  0  0
 21  8  1  0  0  0
  8  9  2  0  0  0
  9 10  1  0  0  0
 10 11  2  0  0  0
 11 12  1  0  0  0
 12 13  2  0  0  0
 13 14  1  0  0  0
 10  1  1  0  0  0
  1  2  2  0  0  0
  2  3  1  0  0  0
  3  4  2  0  0  0
  4  5  1  0  0  0
  5  6  2  0  0  0
  6  7  1  0  0  0
  3 23  1  0  0  0
 23 24  2  0  0  0
 23 25  2  0  0  0
 23 26  1  0  0  0
 26 28  1  0  0  0
 28 29  1  0  0  0
 29 30  1  0  0  0
 29 31  1  0  0  0
 31 32  1  0  0  0
 32 33  1  0  0  0
 33 34  1  0  0  0
 34 35  1  0  0  0
 22 18  1  0  0  0
 13  8  1  0  0  0
  6  1  1  0  0  0
 35 29  1  0  0  0
 14 15  1  0  0  0
 14 16  1  0  0  0
 26 27  1  0  0  0
 30 36  1  0  0  0
M  END
> <minimizedAffinity>
-1.82847

> <CNNscore>
0.2942048907

> <CNNaffinity>
7.7853612900

> <CNN_VS>
2.2904913425

> <CNNaffinity_variance>
0.3539614677

$$$$
[H]OC1(C([H])([H])N([H])S(=O)(=O)c2c([H])c([H])c(C([H])([H])[H])c(-c3c([H])nc(N([H])[H])c(-c4oc(C([H])([H])[H])nc4[H])c3[H])c2[H])C([H])([H])C([H])([H])OC([H])([H])C1([H])[H]


 36 39  0  0  0  0  0  0  0  0999 V2000
    9.7490   45.1761  129.4565 C   0  0  0  0  0  0  0  0  0  0  0  0
   10.1641   44.4972  130.6108 C   0  0  0  0  0  0  0  0  0  0  0  0
   10.6853   43.2303  130.5828 C   0  0  0  0  0  0  0  0  0  0  0  0
   10.8052   42.5998  129.3677 C   0  0  0  0  0  0  0  0  0  0  0  0
   10.4173   43.2062  128.1857 C   0  0  0  0  0  0  0  0  0  0  0  0
    9.8906   44.5009  128.2628 C   0  0  0  0  0  0  0  0  0  0  0  0
    9.4998   45.1188  126.9819 C   0  0  0  0  0  0  0  0  0  0  0  0
    9.0616   48.6281  130.7529 C   0  0  0  0  0  0  0  0  0  0  0  0
    9.5700   47.3573  130.6051 C   0  0  0  0  0  0  0  0  0  0  0  0
    9.1902   46.5212  129.5585 C   0  0  0  0  0  0  0  0  0  0  0  0
    8.2750   47.0056  128.6562 C   0  0  0  0  0  0  0  0  0  0  0  0
    7.7559   48.2575  128.7774 N   0  0  0  0  0  0  0  0  0  0  0  0
    8.1452   49.0383  129.8006 C   0  0  0  0  0  0  0  0  0  0  0  0
    7.6271   50.3619  129.9696 N   0  0  0  0  0  0  0  0  0  0  0  0
    8.1473   51.1449  129.5209 H   0  0  0  0  0  0  0  0  0  0  0  0
    6.7678   50.5727  130.5121 H   0  0  0  0  0  0  0  0  0  0  0  0
    9.6396   52.5033  133.8443 C   0  0  0  0  0  0  0  0  0  0  0  0
    9.7284   51.1496  133.1946 C   0  0  0  0  0  0  0  0  0  0  0  0
   10.4590   50.1445  133.6959 N   0  0  0  0  0  0  0  0  0  0  0  0
   10.3082   49.0966  132.8681 C   0  0  0  0  0  0  0  0  0  0  0  0
    9.4683   49.4885  131.8513 C   0  0  0  0  0  0  0  0  0  0  0  0
    9.1592   50.7328  132.1118 O   0  0  0  0  0  0  0  0  0  0  0  0
   11.1887   42.4174  132.0223 S   0  0  0  0  0  0  0  0  0  0  0  0
   12.6326   42.6650  132.3502 O   0  0  0  0  0  0  0  0  0  0  0  0
   11.0649   40.9220  131.7660 O   0  0  0  0  0  0  0  0  0  0  0  0
   10.2284   42.7758  133.3796 N   0  0  0  0  0  0  0  0  0  0  0  0
    9.8261   41.9514  133.8303 H   0  0  0  0  0  0  0  0  0  0  0  0
   10.8371   43.7312  134.2758 C   0  0  0  0  0  0  0  0  0  0  0  0
   10.1735   45.0857  134.1530 C   0  0  0  0  0  0  0  0  0  0  0  0
   10.9521   45.9334  133.3726 O   0  0  0  0  0  0  0  0  0  0  0  0
    9.9323   45.6843  135.5207 C   0  0  0  0  0  0  0  0  0  0  0  0
    9.0048   46.8531  135.4809 C   0  0  0  0  0  0  0  0  0  0  0  0
    8.7148   47.1785  134.1427 O   0  0  0  0  0  0  0  0  0  0  0  0
    7.9660   46.1217  133.5938 C   0  0  0  0  0  0  0  0  0  0  0  0
    8.7946   44.8590  133.5224 C   0  0  0  0  0  0  0  0  0  0  0  0
   10.5052   46.2133  132.5386 H   0  0  0  0  0  0  0  0  0  0  0  0
 17 18  1  0  0  0
 18 19  2  0  0  0
 19 20  1  0  0  0
 20 21  2  0  0  0
 21 22  1  0  0  0
 21  8  1  0  0  0
  8  9  2  0  0  0
  9 10  1  0  0  0
 10 11  2  0  0  0
 11 12  1  0  0  0
 12 13  2  0  0  0
 13 14  1  0  0  0
 10  1  1  0  0  0
  1  2  2  0  0  0
  2  3  1  0  0  0
  3  4  2  0  0  0
  4  5  1  0  0  0
  5  6  2  0  0  0
  6  7  1  0  0  0
  3 23  1  0  0  0
 23 24  2  0  0  0
 23 25  2  0  0  0
 23 26  1  0  0  0
 26 28  1  0  0  0
 28 29  1  0  0  0
 29 30  1  0  0  0
 29 31  1  0  0  0
 31 32  1  0  0  0
 32 33  1  0  0  0
 33 34  1  0  0  0
 34 35  1  0  0  0
 22 18  1  0  0  0
 13  8  1  0  0  0
  6  1  1  0  0  0
 35 29  1  0  0  0
 14 15  1  0  0  0
 14 16  1  0  0  0
 26 27  1  0  0  0
 30 36  1  0  0  0
M  END
> <minimizedAffinity>
1.99883

> <CNNscore>
0.2630245090

> <CNNaffinity>
7.4893774986

> <CNN_VS>
1.9698898792

> <CNNaffinity_variance>
0.2818581164

$$$$
[H]c1nc2c(C([H])([H])[H])c(C([H])([H])[H])c(-c3c(C([H])(C([H])([H])[H])C([H])([H])[H])c4c([H])c(C5([H])C([H])([H])C([H])([H])N(C(=O)C([H])([H])C([H])([H])N6C([H])([H])C([H])([H])OC([H])([H])C6([H])[H])C([H])([H])C5([H])[H])c([H])c([H])c4n3[H])c([H])n2n1


 40 45  0  0  0  0  0  0  0  0999 V2000
    9.2008   47.7615  131.5667 C   0  0  0  0  0  0  0  0  0  0  0  0
    9.1592   46.3976  131.4611 C   0  0  0  0  0  0  0  0  0  0  0  0
    8.0993   46.0786  130.6770 N   0  0  0  0  0  0  0  0  0  0  0  0
    7.4337   47.1531  130.2521 C   0  0  0  0  0  0  0  0  0  0  0  0
    6.3297   47.3630  129.4514 C   0  0  0  0  0  0  0  0  0  0  0  0
    5.8662   48.6275  129.1725 C   0  0  0  0  0  0  0  0  0  0  0  0
    6.4892   49.7395  129.6819 C   0  0  0  0  0  0  0  0  0  0  0  0
    7.6003   49.4782  130.4871 C   0  0  0  0  0  0  0  0  0  0  0  0
    8.0824   48.2327  130.7859 C   0  0  0  0  0  0  0  0  0  0  0  0
    7.8328   45.0869  130.4380 H   0  0  0  0  0  0  0  0  0  0  0  0
    9.8981   45.4329  132.2699 C   0  0  0  0  0  0  0  0  0  0  0  0
   10.2261   45.5405  133.5663 C   0  0  0  0  0  0  0  0  0  0  0  0
   10.7785   44.5352  134.2819 N   0  0  0  0  0  0  0  0  0  0  0  0
   11.1389   44.5001  135.5729 N   0  0  0  0  0  0  0  0  0  0  0  0
   11.6348   43.2733  135.8445 C   0  0  0  0  0  0  0  0  0  0  0  0
   11.5748   42.5668  134.7076 N   0  0  0  0  0  0  0  0  0  0  0  0
   11.0481   43.3447  133.7488 C   0  0  0  0  0  0  0  0  0  0  0  0
   10.7493   43.1335  132.4015 C   0  0  0  0  0  0  0  0  0  0  0  0
   11.1064   41.7888  131.8854 C   0  0  0  0  0  0  0  0  0  0  0  0
   10.1815   44.1606  131.6778 C   0  0  0  0  0  0  0  0  0  0  0  0
    9.8605   43.8761  130.2702 C   0  0  0  0  0  0  0  0  0  0  0  0
    6.0888   51.1340  129.4659 C   0  0  0  0  0  0  0  0  0  0  0  0
    7.0741   52.1915  129.7352 C   0  0  0  0  0  0  0  0  0  0  0  0
    7.0148   53.3223  128.6726 C   0  0  0  0  0  0  0  0  0  0  0  0
    7.2156   52.8214  127.3483 N   0  0  0  0  0  0  0  0  0  0  0  0
    6.7180   51.4682  127.0817 C   0  0  0  0  0  0  0  0  0  0  0  0
    5.5412   51.2451  128.0159 C   0  0  0  0  0  0  0  0  0  0  0  0
    7.8531   53.5900  126.3547 C   0  0  0  0  0  0  0  0  0  0  0  0
    8.0911   53.0654  125.2293 O   0  0  0  0  0  0  0  0  0  0  0  0
    8.2552   54.9881  126.5639 C   0  0  0  0  0  0  0  0  0  0  0  0
    8.9605   55.5088  125.3118 C   0  0  0  0  0  0  0  0  0  0  0  0
    8.0913   56.1611  124.4007 N   0  0  0  0  0  0  0  0  0  0  0  0
    6.7283   56.0882  124.8540 C   0  0  0  0  0  0  0  0  0  0  0  0
    5.8354   55.5420  123.7450 C   0  0  0  0  0  0  0  0  0  0  0  0
    6.3646   54.3955  123.2175 O   0  0  0  0  0  0  0  0  0  0  0  0
    7.5775   54.5722  122.6157 C   0  0  0  0  0  0  0  0  0  0  0  0
    8.2376   55.8905  123.0152 C   0  0  0  0  0  0  0  0  0  0  0  0
   10.5560   49.8370  131.1277 C   0  0  0  0  0  0  0  0  0  0  0  0
   10.1559   48.7292  132.1128 C   0  0  0  0  0  0  0  0  0  0  0  0
   10.2996   49.0383  133.5480 C   0  0  0  0  0  0  0  0  0  0  0  0
 38 39  1  0  0  0
 39 40  1  0  0  0
 39  1  1  0  0  0
  1  2  2  0  0  0
  2  3  1  0  0  0
  3  4  1  0  0  0
  4  5  2  0  0  0
  5  6  1  0  0  0
  6  7  2  0  0  0
  7  8  1  0  0  0
  8  9  2  0  0  0
  7 22  1  0  0  0
 22 23  1  0  0  0
 23 24  1  0  0  0
 24 25  1  0  0  0
 25 26  1  0  0  0
 26 27  1  0  0  0
 25 28  1  0  0  0
 28 29  2  0  0  0
 28 30  1  0  0  0
 30 31  1  0  0  0
 31 32  1  0  0  0
 32 33  1  0  0  0
 33 34  1  0  0  0
 34 35  1  0  0  0
 35 36  1  0  0  0
 36 37  1  0  0  0
  2 11  1  0  0  0
 11 12  2  0  0  0
 12 13  1  0  0  0
 13 14  1  0  0  0
 14 15  2  0  0  0
 15 16  1  0  0  0
 16 17  2  0  0  0
 17 18  1  0  0  0
 18 19  1  0  0  0
 18 20  2  0  0  0
 20 21  1  0  0  0
  9  1  1  0  0  0
 27 22  1  0  0  0
 37 32  1  0  0  0
 20 11  1  0  0  0
  9  4  1  0  0  0
 17 13  1  0  0  0
  3 10  1  0  0  0
M  END
> <minimizedAffinity>
10.52037

> <CNNscore>
0.2348788232

> <CNNaffinity>
7.4876770973

> <CNN_VS>
1.7586967945

> <CNNaffinity_variance>
0.5239297152

$$$$
[H]c1nc2c(C([H])([H])[H])c(C([H])([H])[H])c(-c3c(C([H])(C([H])([H])[H])C([H])([H])[H])c4c([H])c(C5([H])C([H])([H])C([H])([H])N(C(=O)C([H])([H])C([H])([H])N6C([H])([H])C([H])([H])OC([H])([H])C6([H])[H])C([H])([H])C5([H])[H])c([H])c([H])c4n3[H])c([H])n2n1


 40 45  0  0  0  0  0  0  0  0999 V2000
    8.1629   47.5714  130.2172 C   0  0  0  0  0  0  0  0  0  0  0  0
    9.0287   47.2519  131.2279 C   0  0  0  0  0  0  0  0  0  0  0  0
    9.4282   48.4111  131.8082 N   0  0  0  0  0  0  0  0  0  0  0  0
    8.8756   49.4848  131.2428 C   0  0  0  0  0  0  0  0  0  0  0  0
    8.9435   50.8457  131.4607 C   0  0  0  0  0  0  0  0  0  0  0  0
    8.2282   51.7388  130.6977 C   0  0  0  0  0  0  0  0  0  0  0  0
    7.4104   51.3084  129.6826 C   0  0  0  0  0  0  0  0  0  0  0  0
    7.3746   49.9243  129.4984 C   0  0  0  0  0  0  0  0  0  0  0  0
    8.0773   49.0118  130.2377 C   0  0  0  0  0  0  0  0  0  0  0  0
   10.1064   48.4520  132.6144 H   0  0  0  0  0  0  0  0  0  0  0  0
    9.6638   45.9585  131.4618 C   0  0  0  0  0  0  0  0  0  0  0  0
    9.3129   45.0319  132.3661 C   0  0  0  0  0  0  0  0  0  0  0  0
    9.8569   43.7953  132.4167 N   0  0  0  0  0  0  0  0  0  0  0  0
    9.5934   42.7767  133.2479 N   0  0  0  0  0  0  0  0  0  0  0  0
   10.3787   41.7322  132.9057 C   0  0  0  0  0  0  0  0  0  0  0  0
   11.1218   42.1269  131.8630 N   0  0  0  0  0  0  0  0  0  0  0  0
   10.7991   43.3952  131.5645 C   0  0  0  0  0  0  0  0  0  0  0  0
   11.2387   44.2900  130.5871 C   0  0  0  0  0  0  0  0  0  0  0  0
   12.3073   43.7699  129.6985 C   0  0  0  0  0  0  0  0  0  0  0  0
   10.6769   45.5482  130.5372 C   0  0  0  0  0  0  0  0  0  0  0  0
   11.1555   46.4418  129.4705 C   0  0  0  0  0  0  0  0  0  0  0  0
    6.6065   52.1574  128.7968 C   0  0  0  0  0  0  0  0  0  0  0  0
    6.7461   53.6163  128.9145 C   0  0  0  0  0  0  0  0  0  0  0  0
    6.7344   54.3129  127.5268 C   0  0  0  0  0  0  0  0  0  0  0  0
    7.7632   53.8116  126.6692 N   0  0  0  0  0  0  0  0  0  0  0  0
    8.1169   52.3984  126.8339 C   0  0  0  0  0  0  0  0  0  0  0  0
    6.8693   51.6931  127.3373 C   0  0  0  0  0  0  0  0  0  0  0  0
    8.3974   54.6322  125.7159 C   0  0  0  0  0  0  0  0  0  0  0  0
    9.3655   54.1661  125.0496 O   0  0  0  0  0  0  0  0  0  0  0  0
    7.9811   56.0169  125.4527 C   0  0  0  0  0  0  0  0  0  0  0  0
    6.8893   56.0267  124.3829 C   0  0  0  0  0  0  0  0  0  0  0  0
    6.1158   54.8384  124.3508 N   0  0  0  0  0  0  0  0  0  0  0  0
    6.1425   54.2469  123.0402 C   0  0  0  0  0  0  0  0  0  0  0  0
    4.7210   53.9816  122.5556 C   0  0  0  0  0  0  0  0  0  0  0  0
    3.9421   55.0968  122.7056 O   0  0  0  0  0  0  0  0  0  0  0  0
    3.7863   55.4921  124.0032 C   0  0  0  0  0  0  0  0  0  0  0  0
    4.8210   54.8589  124.9315 C   0  0  0  0  0  0  0  0  0  0  0  0
    7.6670   45.3344  129.1746 C   0  0  0  0  0  0  0  0  0  0  0  0
    7.2742   46.8101  129.3355 C   0  0  0  0  0  0  0  0  0  0  0  0
    5.8604   47.1482  129.0849 C   0  0  0  0  0  0  0  0  0  0  0  0
 38 39  1  0  0  0
 39 40  1  0  0  0
 39  1  1  0  0  0
  1  2  2  0  0  0
  2  3  1  0  0  0
  3  4  1  0  0  0
  4  5  2  0  0  0
  5  6  1  0  0  0
  6  7  2  0  0  0
  7  8  1  0  0  0
  8  9  2  0  0  0
  7 22  1  0  0  0
 22 23  1  0  0  0
 23 24  1  0  0  0
 24 25  1  0  0  0
 25 26  1  0  0  0
 26 27  1  0  0  0
 25 28  1  0  0  0
 28 29  2  0  0  0
 28 30  1  0  0  0
 30 31  1  0  0  0
 31 32  1  0  0  0
 32 33  1  0  0  0
 33 34  1  0  0  0
 34 35  1  0  0  0
 35 36  1  0  0  0
 36 37  1  0  0  0
  2 11  1  0  0  0
 11 12  2  0  0  0
 12 13  1  0  0  0
 13 14  1  0  0  0
 14 15  2  0  0  0
 15 16  1  0  0  0
 16 17  2  0  0  0
 17 18  1  0  0  0
 18 19  1  0  0  0
 18 20  2  0  0  0
 20 21  1  0  0  0
  9  1  1  0  0  0
 27 22  1  0  0  0
 37 32  1  0  0  0
 20 11  1  0  0  0
  9  4  1  0  0  0
 17 13  1  0  0  0
  3 10  1  0  0  0
M  END
> <minimizedAffinity>
9.35462

> <CNNscore>
0.2304509878

> <CNNaffinity>
7.4017271996

> <CNN_VS>
1.7057353258

> <CNNaffinity_variance>
1.0588073730

$$$$
[H]c1nc2c(C([H])([H])[H])c(C([H])([H])[H])c(-c3c(C([H])(C([H])([H])[H])C([H])([H])[H])c4c([H])c(C5([H])C([H])([H])C([H])([H])N(C(=O)C([H])([H])C([H])([H])N6C([H])([H])C([H])([H])OC([H])([H])C6([H])[H])C([H])([H])C5([H])[H])c([H])c([H])c4n3[H])c([H])n2n1


 40 45  0  0  0  0  0  0  0  0999 V2000
    8.1668   47.5922  130.2241 C   0  0  0  0  0  0  0  0  0  0  0  0
    9.0268   47.2750  131.2405 C   0  0  0  0  0  0  0  0  0  0  0  0
    9.4266   48.4357  131.8175 N   0  0  0  0  0  0  0  0  0  0  0  0
    8.8798   49.5084  131.2444 C   0  0  0  0  0  0  0  0  0  0  0  0
    8.9504   50.8701  131.4563 C   0  0  0  0  0  0  0  0  0  0  0  0
    8.2413   51.7616  130.6857 C   0  0  0  0  0  0  0  0  0  0  0  0
    7.4273   51.3288  129.6686 C   0  0  0  0  0  0  0  0  0  0  0  0
    7.3886   49.9440  129.4907 C   0  0  0  0  0  0  0  0  0  0  0  0
    8.0851   49.0329  130.2376 C   0  0  0  0  0  0  0  0  0  0  0  0
   10.1009   48.4785  132.6268 H   0  0  0  0  0  0  0  0  0  0  0  0
    9.6571   45.9810  131.4836 C   0  0  0  0  0  0  0  0  0  0  0  0
   10.9174   45.6234  131.1952 C   0  0  0  0  0  0  0  0  0  0  0  0
   11.4705   44.4550  131.5911 N   0  0  0  0  0  0  0  0  0  0  0  0
   12.7082   43.9809  131.3885 N   0  0  0  0  0  0  0  0  0  0  0  0
   12.8058   42.7729  131.9852 C   0  0  0  0  0  0  0  0  0  0  0  0
   11.6169   42.5178  132.5481 N   0  0  0  0  0  0  0  0  0  0  0  0
   10.7981   43.5532  132.3044 C   0  0  0  0  0  0  0  0  0  0  0  0
    9.4741   43.8287  132.6511 C   0  0  0  0  0  0  0  0  0  0  0  0
    8.7943   42.7587  133.4227 C   0  0  0  0  0  0  0  0  0  0  0  0
    8.9168   45.0239  132.2488 C   0  0  0  0  0  0  0  0  0  0  0  0
    7.5281   45.2767  132.6648 C   0  0  0  0  0  0  0  0  0  0  0  0
    6.6301   52.1759  128.7750 C   0  0  0  0  0  0  0  0  0  0  0  0
    6.7727   53.6350  128.8872 C   0  0  0  0  0  0  0  0  0  0  0  0
    6.7700   54.3256  127.4965 C   0  0  0  0  0  0  0  0  0  0  0  0
    7.8020   53.8183  126.6465 N   0  0  0  0  0  0  0  0  0  0  0  0
    8.1515   52.4049  126.8191 C   0  0  0  0  0  0  0  0  0  0  0  0
    6.8995   51.7048  127.3189 C   0  0  0  0  0  0  0  0  0  0  0  0
    8.4433   54.6332  125.6930 C   0  0  0  0  0  0  0  0  0  0  0  0
    9.4137   54.1620  125.0339 O   0  0  0  0  0  0  0  0  0  0  0  0
    8.0317   56.0178  125.4217 C   0  0  0  0  0  0  0  0  0  0  0  0
    6.9526   56.0263  124.3391 C   0  0  0  0  0  0  0  0  0  0  0  0
    6.1377   54.8656  124.3412 N   0  0  0  0  0  0  0  0  0  0  0  0
    6.0938   54.2701  123.0328 C   0  0  0  0  0  0  0  0  0  0  0  0
    4.6465   54.0532  122.6037 C   0  0  0  0  0  0  0  0  0  0  0  0
    3.9130   55.1951  122.7789 O   0  0  0  0  0  0  0  0  0  0  0  0
    3.8206   55.5990  124.0799 C   0  0  0  0  0  0  0  0  0  0  0  0
    4.8675   54.9326  124.9707 C   0  0  0  0  0  0  0  0  0  0  0  0
    7.8973   45.5283  128.8084 C   0  0  0  0  0  0  0  0  0  0  0  0
    7.2803   46.8293  129.3416 C   0  0  0  0  0  0  0  0  0  0  0  0
    5.8071   46.8926  129.3842 C   0  0  0  0  0  0  0  0  0  0  0  0
 38 39  1  0  0  0
 39 40  1  0  0  0
 39  1  1  0  0  0
  1  2  2  0  0  0
  2  3  1  0  0  0
  3  4  1  0  0  0
  4  5  2  0  0  0
  5  6  1  0  0  0
  6  7  2  0  0  0
  7  8  1  0  0  0
  8  9  2  0  0  0
  7 22  1  0  0  0
 22 23  1  0  0  0
 23 24  1  0  0  0
 24 25  1  0  0  0
 25 26  1  0  0  0
 26 27  1  0  0  0
 25 28  1  0  0  0
 28 29  2  0  0  0
 28 30  1  0  0  0
 30 31  1  0  0  0
 31 32  1  0  0  0
 32 33  1  0  0  0
 33 34  1  0  0  0
 34 35  1  0  0  0
 35 36  1  0  0  0
 36 37  1  0  0  0
  2 11  1  0  0  0
 11 12  2  0  0  0
 12 13  1  0  0  0
 13 14  1  0  0  0
 14 15  2  0  0  0
 15 16  1  0  0  0
 16 17  2  0  0  0
 17 18  1  0  0  0
 18 19  1  0  0  0
 18 20  2  0  0  0
 20 21  1  0  0  0
  9  1  1  0  0  0
 27 22  1  0  0  0
 37 32  1  0  0  0
 20 11  1  0  0  0
  9  4  1  0  0  0
 17 13  1  0  0  0
  3 10  1  0  0  0
M  END
> <minimizedAffinity>
9.40443

> <CNNscore>
0.2206675112

> <CNNaffinity>
7.4482259750

> <CNN_VS>
1.6435815096

> <CNNaffinity_variance>
1.0107322931

$$$$
[H]c1nc2c(C([H])([H])[H])c(C([H])([H])[H])c(-c3c(C([H])(C([H])([H])[H])C([H])([H])[H])c4c([H])c(C5([H])C([H])([H])C([H])([H])N(C(=O)C([H])([H])C([H])([H])N6C([H])([H])C([H])([H])OC([H])([H])C6([H])[H])C([H])([H])C5([H])[H])c([H])c([H])c4n3[H])c([H])n2n1


 40 45  0  0  0  0  0  0  0  0999 V2000
    8.5586   48.4678  130.0672 C   0  0  0  0  0  0  0  0  0  0  0  0
    7.6676   47.5575  130.5677 C   0  0  0  0  0  0  0  0  0  0  0  0
    6.4225   48.0718  130.4096 N   0  0  0  0  0  0  0  0  0  0  0  0
    6.4333   49.2725  129.8297 C   0  0  0  0  0  0  0  0  0  0  0  0
    5.4665   50.1809  129.4499 C   0  0  0  0  0  0  0  0  0  0  0  0
    5.7894   51.3720  128.8428 C   0  0  0  0  0  0  0  0  0  0  0  0
    7.0959   51.7062  128.5868 C   0  0  0  0  0  0  0  0  0  0  0  0
    8.0388   50.7576  128.9896 C   0  0  0  0  0  0  0  0  0  0  0  0
    7.7491   49.5669  129.5990 C   0  0  0  0  0  0  0  0  0  0  0  0
    5.5461   47.5739  130.7189 H   0  0  0  0  0  0  0  0  0  0  0  0
    7.9739   46.3967  131.3981 C   0  0  0  0  0  0  0  0  0  0  0  0
    7.9111   45.1043  131.0443 C   0  0  0  0  0  0  0  0  0  0  0  0
    8.3580   44.0946  131.8245 N   0  0  0  0  0  0  0  0  0  0  0  0
    8.3707   42.7740  131.5928 N   0  0  0  0  0  0  0  0  0  0  0  0
    8.9287   42.1590  132.6582 C   0  0  0  0  0  0  0  0  0  0  0  0
    9.2511   43.1168  133.5380 N   0  0  0  0  0  0  0  0  0  0  0  0
    8.8992   44.3054  133.0231 C   0  0  0  0  0  0  0  0  0  0  0  0
    9.0044   45.6182  133.4865 C   0  0  0  0  0  0  0  0  0  0  0  0
    9.5951   45.7577  134.8407 C   0  0  0  0  0  0  0  0  0  0  0  0
    8.5515   46.6443  132.6846 C   0  0  0  0  0  0  0  0  0  0  0  0
    8.7119   48.0100  133.2083 C   0  0  0  0  0  0  0  0  0  0  0  0
    7.5676   52.9436  127.9559 C   0  0  0  0  0  0  0  0  0  0  0  0
    7.9090   52.9105  126.5262 C   0  0  0  0  0  0  0  0  0  0  0  0
    7.4376   54.1930  125.7886 C   0  0  0  0  0  0  0  0  0  0  0  0
    6.0300   54.4030  125.9293 N   0  0  0  0  0  0  0  0  0  0  0  0
    5.4282   53.9577  127.1899 C   0  0  0  0  0  0  0  0  0  0  0  0
    6.5149   54.0489  128.2473 C   0  0  0  0  0  0  0  0  0  0  0  0
    5.2665   55.0088  124.9122 C   0  0  0  0  0  0  0  0  0  0  0  0
    4.0117   55.0839  125.0468 O   0  0  0  0  0  0  0  0  0  0  0  0
    5.8648   55.5673  123.6915 C   0  0  0  0  0  0  0  0  0  0  0  0
    5.9091   54.4912  122.6068 C   0  0  0  0  0  0  0  0  0  0  0  0
    7.2029   54.2861  122.0635 N   0  0  0  0  0  0  0  0  0  0  0  0
    7.9720   53.4009  122.8960 C   0  0  0  0  0  0  0  0  0  0  0  0
    9.3184   54.0338  123.2310 C   0  0  0  0  0  0  0  0  0  0  0  0
    9.1519   55.3119  123.6907 O   0  0  0  0  0  0  0  0  0  0  0  0
    8.6000   56.1614  122.7751 C   0  0  0  0  0  0  0  0  0  0  0  0
    7.9360   55.4169  121.6183 C   0  0  0  0  0  0  0  0  0  0  0  0
   10.8230   49.3298  130.7503 C   0  0  0  0  0  0  0  0  0  0  0  0
    9.9971   48.4636  129.7884 C   0  0  0  0  0  0  0  0  0  0  0  0
   10.7108   47.3646  129.1112 C   0  0  0  0  0  0  0  0  0  0  0  0
 38 39  1  0  0  0
 39 40  1  0  0  0
 39  1  1  0  0  0
  1  2  2  0  0  0
  2  3  1  0  0  0
  3  4  1  0  0  0
  4  5  2  0  0  0
  5  6  1  0  0  0
  6  7  2  0  0  0
  7  8  1  0  0  0
  8  9  2  0  0  0
  7 22  1  0  0  0
 22 23  1  0  0  0
 23 24  1  0  0  0
 24 25  1  0  0  0
 25 26  1  0  0  0
 26 27  1  0  0  0
 25 28  1  0  0  0
 28 29  2  0  0  0
 28 30  1  0  0  0
 30 31  1  0  0  0
 31 32  1  0  0  0
 32 33  1  0  0  0
 33 34  1  0  0  0
 34 35  1  0  0  0
 35 36  1  0  0  0
 36 37  1  0  0  0
  2 11  1  0  0  0
 11 12  2  0  0  0
 12 13  1  0  0  0
 13 14  1  0  0  0
 14 15  2  0  0  0
 15 16  1  0  0  0
 16 17  2  0  0  0
 17 18  1  0  0  0
 18 19  1  0  0  0
 18 20  2  0  0  0
 20 21  1  0  0  0
  9  1  1  0  0  0
 27 22  1  0  0  0
 37 32  1  0  0  0
 20 11  1  0  0  0
  9  4  1  0  0  0
 17 13  1  0  0  0
  3 10  1  0  0  0
M  END
> <minimizedAffinity>
10.53181

> <CNNscore>
0.1989256889

> <CNNaffinity>
7.2937593460

> <CNN_VS>
1.4509160519

> <CNNaffinity_variance>
0.2135720253

$$$$
[H]c1nc2c(C([H])([H])[H])c(C([H])([H])[H])c(-c3c(C([H])(C([H])([H])[H])C([H])([H])[H])c4c([H])c(C5([H])C([H])([H])C([H])([H])N(C(=O)C([H])([H])C([H])([H])N6C([H])([H])C([H])([H])OC([H])([H])C6([H])[H])C([H])([H])C5([H])[H])c([H])c([H])c4n3[H])c([H])n2n1


 40 45  0  0  0  0  0  0  0  0999 V2000
    8.1858   47.1774  130.7429 C   0  0  0  0  0  0  0  0  0  0  0  0
    9.1012   46.9208  131.7274 C   0  0  0  0  0  0  0  0  0  0  0  0
    9.5490   48.1136  132.1929 N   0  0  0  0  0  0  0  0  0  0  0  0
    8.9818   49.1507  131.5758 C   0  0  0  0  0  0  0  0  0  0  0  0
    9.0815   50.5228  131.6825 C   0  0  0  0  0  0  0  0  0  0  0  0
    8.3383   51.3675  130.8915 C   0  0  0  0  0  0  0  0  0  0  0  0
    7.4596   50.8755  129.9588 C   0  0  0  0  0  0  0  0  0  0  0  0
    7.3935   49.4822  129.8857 C   0  0  0  0  0  0  0  0  0  0  0  0
    8.1225   48.6165  130.6552 C   0  0  0  0  0  0  0  0  0  0  0  0
   10.2711   48.2040  132.9558 H   0  0  0  0  0  0  0  0  0  0  0  0
    9.7293   45.6377  132.0273 C   0  0  0  0  0  0  0  0  0  0  0  0
    9.5617   44.4779  131.3744 C   0  0  0  0  0  0  0  0  0  0  0  0
   10.2967   43.3702  131.6206 N   0  0  0  0  0  0  0  0  0  0  0  0
   10.2466   42.1623  131.0406 N   0  0  0  0  0  0  0  0  0  0  0  0
   11.1861   41.3761  131.6097 C   0  0  0  0  0  0  0  0  0  0  0  0
   11.8035   42.1160  132.5407 N   0  0  0  0  0  0  0  0  0  0  0  0
   11.2549   43.3411  132.5453 C   0  0  0  0  0  0  0  0  0  0  0  0
   11.5035   44.4984  133.2856 C   0  0  0  0  0  0  0  0  0  0  0  0
   12.5690   44.3682  134.3104 C   0  0  0  0  0  0  0  0  0  0  0  0
   10.7541   45.6265  133.0270 C   0  0  0  0  0  0  0  0  0  0  0  0
   11.0758   46.8265  133.8155 C   0  0  0  0  0  0  0  0  0  0  0  0
    6.6206   51.6684  129.0538 C   0  0  0  0  0  0  0  0  0  0  0  0
    6.6477   53.1328  129.1824 C   0  0  0  0  0  0  0  0  0  0  0  0
    6.6242   53.8361  127.7982 C   0  0  0  0  0  0  0  0  0  0  0  0
    7.7117   53.4186  126.9687 N   0  0  0  0  0  0  0  0  0  0  0  0
    8.1649   52.0345  127.1372 C   0  0  0  0  0  0  0  0  0  0  0  0
    6.9593   51.2350  127.6004 C   0  0  0  0  0  0  0  0  0  0  0  0
    8.3103   54.2906  126.0383 C   0  0  0  0  0  0  0  0  0  0  0  0
    9.3293   53.9023  125.3985 O   0  0  0  0  0  0  0  0  0  0  0  0
    7.7998   55.6423  125.7695 C   0  0  0  0  0  0  0  0  0  0  0  0
    8.3897   56.1588  124.4574 C   0  0  0  0  0  0  0  0  0  0  0  0
    7.5208   56.0087  123.3467 N   0  0  0  0  0  0  0  0  0  0  0  0
    6.2173   55.5754  123.7729 C   0  0  0  0  0  0  0  0  0  0  0  0
    5.7915   54.3410  122.9851 C   0  0  0  0  0  0  0  0  0  0  0  0
    6.7812   53.3959  122.9934 O   0  0  0  0  0  0  0  0  0  0  0  0
    7.9362   53.7993  122.3871 C   0  0  0  0  0  0  0  0  0  0  0  0
    7.9977   55.3146  122.2043 C   0  0  0  0  0  0  0  0  0  0  0  0
    5.9497   47.1078  129.5887 C   0  0  0  0  0  0  0  0  0  0  0  0
    7.2387   46.3671  129.9726 C   0  0  0  0  0  0  0  0  0  0  0  0
    7.6202   45.2222  129.1241 C   0  0  0  0  0  0  0  0  0  0  0  0
 38 39  1  0  0  0
 39 40  1  0  0  0
 39  1  1  0  0  0
  1  2  2  0  0  0
  2  3  1  0  0  0
  3  4  1  0  0  0
  4  5  2  0  0  0
  5  6  1  0  0  0
  6  7  2  0  0  0
  7  8  1  0  0  0
  8  9  2  0  0  0
  7 22  1  0  0  0
 22 23  1  0  0  0
 23 24  1  0  0  0
 24 25  1  0  0  0
 25 26  1  0  0  0
 26 27  1  0  0  0
 25 28  1  0  0  0
 28 29  2  0  0  0
 28 30  1  0  0  0
 30 31  1  0  0  0
 31 32  1  0  0  0
 32 33  1  0  0  0
 33 34  1  0  0  0
 34 35  1  0  0  0
 35 36  1  0  0  0
 36 37  1  0  0  0
  2 11  1  0  0  0
 11 12  2  0  0  0
 12 13  1  0  0  0
 13 14  1  0  0  0
 14 15  2  0  0  0
 15 16  1  0  0  0
 16 17  2  0  0  0
 17 18  1  0  0  0
 18 19  1  0  0  0
 18 20  2  0  0  0
 20 21  1  0  0  0
  9  1  1  0  0  0
 27 22  1  0  0  0
 37 32  1  0  0  0
 20 11  1  0  0  0
  9  4  1  0  0  0
 17 13  1  0  0  0
  3 10  1  0  0  0
M  END
> <minimizedAffinity>
8.36867

> <CNNscore>
0.1876027435

> <CNNaffinity>
7.5305776596

> <CNN_VS>
1.4127570391

> <CNNaffinity_variance>
0.6465252042

$$$$
[H]c1nc2c(C([H])([H])[H])c(C([H])([H])[H])c(-c3c(C([H])(C([H])([H])[H])C([H])([H])[H])c4c([H])c(C5([H])C([H])([H])C([H])([H])N(C(=O)C([H])([H])C([H])([H])N6C([H])([H])C([H])([H])OC([H])([H])C6([H])[H])C([H])([H])C5([H])[H])c([H])c([H])c4n3[H])c([H])n2n1


 40 45  0  0  0  0  0  0  0  0999 V2000
    8.6074   47.4769  131.5295 C   0  0  0  0  0  0  0  0  0  0  0  0
    9.5642   47.5241  132.5069 C   0  0  0  0  0  0  0  0  0  0  0  0
    9.9010   48.8253  132.6895 N   0  0  0  0  0  0  0  0  0  0  0  0
    9.2208   49.6482  131.8906 C   0  0  0  0  0  0  0  0  0  0  0  0
    9.1860   51.0143  131.6994 C   0  0  0  0  0  0  0  0  0  0  0  0
    8.3462   51.5965  130.7789 C   0  0  0  0  0  0  0  0  0  0  0  0
    7.5013   50.8360  130.0093 C   0  0  0  0  0  0  0  0  0  0  0  0
    7.5724   49.4597  130.2365 C   0  0  0  0  0  0  0  0  0  0  0  0
    8.3997   48.8511  131.1411 C   0  0  0  0  0  0  0  0  0  0  0  0
   10.6264   49.1442  133.3850 H   0  0  0  0  0  0  0  0  0  0  0  0
   10.3227   46.3993  133.0459 C   0  0  0  0  0  0  0  0  0  0  0  0
   10.3017   45.9322  134.3032 C   0  0  0  0  0  0  0  0  0  0  0  0
   10.9178   44.7910  134.6854 N   0  0  0  0  0  0  0  0  0  0  0  0
   10.9659   44.2057  135.8907 N   0  0  0  0  0  0  0  0  0  0  0  0
   11.6899   43.0701  135.7854 C   0  0  0  0  0  0  0  0  0  0  0  0
   12.0822   42.9737  134.5079 N   0  0  0  0  0  0  0  0  0  0  0  0
   11.6063   44.0326  133.8340 C   0  0  0  0  0  0  0  0  0  0  0  0
   11.6937   44.4366  132.5005 C   0  0  0  0  0  0  0  0  0  0  0  0
   12.5009   43.5468  131.6293 C   0  0  0  0  0  0  0  0  0  0  0  0
   11.0594   45.5987  132.1153 C   0  0  0  0  0  0  0  0  0  0  0  0
   11.1591   45.9637  130.6933 C   0  0  0  0  0  0  0  0  0  0  0  0
    6.5689   51.3345  128.9925 C   0  0  0  0  0  0  0  0  0  0  0  0
    6.1405   52.7388  129.0687 C   0  0  0  0  0  0  0  0  0  0  0  0
    6.0608   53.3968  127.6645 C   0  0  0  0  0  0  0  0  0  0  0  0
    7.3087   53.3250  126.9697 N   0  0  0  0  0  0  0  0  0  0  0  0
    8.1350   52.1435  127.2361 C   0  0  0  0  0  0  0  0  0  0  0  0
    7.1816   51.0184  127.5998 C   0  0  0  0  0  0  0  0  0  0  0  0
    7.7173   54.3337  126.0754 C   0  0  0  0  0  0  0  0  0  0  0  0
    8.8703   54.2696  125.5608 O   0  0  0  0  0  0  0  0  0  0  0  0
    6.8575   55.4665  125.7044 C   0  0  0  0  0  0  0  0  0  0  0  0
    6.1849   55.1783  124.3624 C   0  0  0  0  0  0  0  0  0  0  0  0
    4.8836   55.7306  124.2497 N   0  0  0  0  0  0  0  0  0  0  0  0
    4.3954   56.1538  125.5346 C   0  0  0  0  0  0  0  0  0  0  0  0
    3.0186   55.5527  125.7964 C   0  0  0  0  0  0  0  0  0  0  0  0
    3.0258   54.2046  125.5607 O   0  0  0  0  0  0  0  0  0  0  0  0
    3.2969   53.8713  124.2646 C   0  0  0  0  0  0  0  0  0  0  0  0
    3.9158   55.0295  123.4842 C   0  0  0  0  0  0  0  0  0  0  0  0
    7.3845   46.6177  129.5038 C   0  0  0  0  0  0  0  0  0  0  0  0
    7.7295   46.4357  130.9889 C   0  0  0  0  0  0  0  0  0  0  0  0
    7.6350   45.0650  131.5258 C   0  0  0  0  0  0  0  0  0  0  0  0
 38 39  1  0  0  0
 39 40  1  0  0  0
 39  1  1  0  0  0
  1  2  2  0  0  0
  2  3  1  0  0  0
  3  4  1  0  0  0
  4  5  2  0  0  0
  5  6  1  0  0  0
  6  7  2  0  0  0
  7  8  1  0  0  0
  8  9  2  0  0  0
  7 22  1  0  0  0
 22 23  1  0  0  0
 23 24  1  0  0  0
 24 25  1  0  0  0
 25 26  1  0  0  0
 26 27  1  0  0  0
 25 28  1  0  0  0
 28 29  2  0  0  0
 28 30  1  0  0  0
 30 31  1  0  0  0
 31 32  1  0  0  0
 32 33  1  0  0  0
 33 34  1  0  0  0
 34 35  1  0  0  0
 35 36  1  0  0  0
 36 37  1  0  0  0
  2 11  1  0  0  0
 11 12  2  0  0  0
 12 13  1  0  0  0
 13 14  1  0  0  0
 14 15  2  0  0  0
 15 16  1  0  0  0
 16 17  2  0  0  0
 17 18  1  0  0  0
 18 19  1  0  0  0
 18 20  2  0  0  0
 20 21  1  0  0  0
  9  1  1  0  0  0
 27 22  1  0  0  0
 37 32  1  0  0  0
 20 11  1  0  0  0
  9  4  1  0  0  0
 17 13  1  0  0  0
  3 10  1  0  0  0
M  END
> <minimizedAffinity>
12.29746

> <CNNscore>
0.1713019609

> <CNNaffinity>
7.1960382462

> <CNN_VS>
1.2326954603

> <CNNaffinity_variance>
0.4938779473

$$$$
[H]c1nc2c(C([H])([H])[H])c(C([H])([H])[H])c(-c3c(C([H])(C([H])([H])[H])C([H])([H])[H])c4c([H])c(C5([H])C([H])([H])C([H])([H])N(C(=O)C([H])([H])C([H])([H])N6C([H])([H])C([H])([H])OC([H])([H])C6([H])[H])C([H])([H])C5([H])[H])c([H])c([H])c4n3[H])c([H])n2n1


 40 45  0  0  0  0  0  0  0  0999 V2000
    8.9939   48.4082  131.0276 C   0  0  0  0  0  0  0  0  0  0  0  0
    8.8682   47.1196  130.5839 C   0  0  0  0  0  0  0  0  0  0  0  0
    8.1309   47.1473  129.4457 N   0  0  0  0  0  0  0  0  0  0  0  0
    7.7602   48.3818  129.1045 C   0  0  0  0  0  0  0  0  0  0  0  0
    7.0360   48.9309  128.0662 C   0  0  0  0  0  0  0  0  0  0  0  0
    6.8188   50.2856  127.9704 C   0  0  0  0  0  0  0  0  0  0  0  0
    7.3194   51.1521  128.9100 C   0  0  0  0  0  0  0  0  0  0  0  0
    8.0439   50.5514  129.9421 C   0  0  0  0  0  0  0  0  0  0  0  0
    8.2730   49.2079  130.0668 C   0  0  0  0  0  0  0  0  0  0  0  0
    7.8772   46.2826  128.8982 H   0  0  0  0  0  0  0  0  0  0  0  0
    9.1811   45.9025  131.3266 C   0  0  0  0  0  0  0  0  0  0  0  0
    8.3276   45.1236  132.0082 C   0  0  0  0  0  0  0  0  0  0  0  0
    8.6707   43.9298  132.5419 N   0  0  0  0  0  0  0  0  0  0  0  0
    7.9244   43.0513  133.2269 N   0  0  0  0  0  0  0  0  0  0  0  0
    8.6983   41.9912  133.5463 C   0  0  0  0  0  0  0  0  0  0  0  0
    9.9196   42.2357  133.0523 N   0  0  0  0  0  0  0  0  0  0  0  0
    9.8998   43.4278  132.4355 C   0  0  0  0  0  0  0  0  0  0  0  0
   10.8653   44.1663  131.7488 C   0  0  0  0  0  0  0  0  0  0  0  0
   12.2117   43.5440  131.7017 C   0  0  0  0  0  0  0  0  0  0  0  0
   10.5086   45.3809  131.2024 C   0  0  0  0  0  0  0  0  0  0  0  0
   11.5560   46.1050  130.4650 C   0  0  0  0  0  0  0  0  0  0  0  0
    7.1505   52.6092  128.9240 C   0  0  0  0  0  0  0  0  0  0  0  0
    8.1538   53.4336  128.2344 C   0  0  0  0  0  0  0  0  0  0  0  0
    7.5038   54.6215  127.4745 C   0  0  0  0  0  0  0  0  0  0  0  0
    6.5290   54.1794  126.5262 N   0  0  0  0  0  0  0  0  0  0  0  0
    5.7788   52.9702  126.8794 C   0  0  0  0  0  0  0  0  0  0  0  0
    5.7223   52.9205  128.3965 C   0  0  0  0  0  0  0  0  0  0  0  0
    6.3010   54.8722  125.3211 C   0  0  0  0  0  0  0  0  0  0  0  0
    5.4971   54.3865  124.4747 O   0  0  0  0  0  0  0  0  0  0  0  0
    6.9559   56.1478  124.9986 C   0  0  0  0  0  0  0  0  0  0  0  0
    8.4677   55.9380  124.9148 C   0  0  0  0  0  0  0  0  0  0  0  0
    8.9364   55.7077  123.5963 N   0  0  0  0  0  0  0  0  0  0  0  0
    7.9756   56.1601  122.6265 C   0  0  0  0  0  0  0  0  0  0  0  0
    7.6736   55.0469  121.6289 C   0  0  0  0  0  0  0  0  0  0  0  0
    7.3795   53.8797  122.2799 O   0  0  0  0  0  0  0  0  0  0  0  0
    8.4107   53.3891  123.0285 C   0  0  0  0  0  0  0  0  0  0  0  0
    9.4904   54.4380  123.2881 C   0  0  0  0  0  0  0  0  0  0  0  0
    9.5649   50.5907  132.1445 C   0  0  0  0  0  0  0  0  0  0  0  0
    9.7772   49.0717  132.0731 C   0  0  0  0  0  0  0  0  0  0  0  0
   10.2486   48.4122  133.3055 C   0  0  0  0  0  0  0  0  0  0  0  0
 38 39  1  0  0  0
 39 40  1  0  0  0
 39  1  1  0  0  0
  1  2  2  0  0  0
  2  3  1  0  0  0
  3  4  1  0  0  0
  4  5  2  0  0  0
  5  6  1  0  0  0
  6  7  2  0  0  0
  7  8  1  0  0  0
  8  9  2  0  0  0
  7 22  1  0  0  0
 22 23  1  0  0  0
 23 24  1  0  0  0
 24 25  1  0  0  0
 25 26  1  0  0  0
 26 27  1  0  0  0
 25 28  1  0  0  0
 28 29  2  0  0  0
 28 30  1  0  0  0
 30 31  1  0  0  0
 31 32  1  0  0  0
 32 33  1  0  0  0
 33 34  1  0  0  0
 34 35  1  0  0  0
 35 36  1  0  0  0
 36 37  1  0  0  0
  2 11  1  0  0  0
 11 12  2  0  0  0
 12 13  1  0  0  0
 13 14  1  0  0  0
 14 15  2  0  0  0
 15 16  1  0  0  0
 16 17  2  0  0  0
 17 18  1  0  0  0
 18 19  1  0  0  0
 18 20  2  0  0  0
 20 21  1  0  0  0
  9  1  1  0  0  0
 27 22  1  0  0  0
 37 32  1  0  0  0
 20 11  1  0  0  0
  9  4  1  0  0  0
 17 13  1  0  0  0
  3 10  1  0  0  0
M  END
> <minimizedAffinity>
12.27889

> <CNNscore>
0.1404825896

> <CNNaffinity>
7.1974782944

> <CNN_VS>
1.0111204386

> <CNNaffinity_variance>
0.4585886002

$$$$
[H]Oc1c([H])c2c(c([H])c1O[H])[C@@]1([H])C([H])([H])C([H])([H])[C@]3(C([H])([H])[H])C(=O)C([H])([H])C([H])([H])[C@@]3([H])[C@]1([H])C([H])([H])C2([H])[H]


 23 26  0  0  0  0  0  0  0  0999 V2000
   11.3610   43.8570  131.2292 C   0  0  0  0  0  0  0  0  0  0  0  0
   10.2754   44.1509  132.2339 C   0  0  0  0  0  0  0  0  0  0  0  0
    8.9111   43.9706  131.6431 C   0  0  0  0  0  0  0  0  0  0  0  0
    8.6961   45.0973  130.6385 C   0  0  0  0  0  0  0  0  0  0  0  0
    8.8344   46.3998  131.3450 C   0  0  0  0  0  0  0  0  0  0  0  0
   10.2692   46.5537  131.8321 C   0  0  0  0  0  0  0  0  0  0  0  0
   10.4916   47.9626  132.3034 C   0  0  0  0  0  0  0  0  0  0  0  0
    9.1724   48.6958  132.5841 C   0  0  0  0  0  0  0  0  0  0  0  0
    8.5162   48.7960  131.2307 C   0  0  0  0  0  0  0  0  0  0  0  0
    8.1202   49.9756  130.6725 C   0  0  0  0  0  0  0  0  0  0  0  0
    7.5340   49.9256  129.4280 C   0  0  0  0  0  0  0  0  0  0  0  0
    7.1190   51.0995  128.8287 O   0  0  0  0  0  0  0  0  0  0  0  0
    7.3582   48.7037  128.7737 C   0  0  0  0  0  0  0  0  0  0  0  0
    6.7600   48.6881  127.5121 O   0  0  0  0  0  0  0  0  0  0  0  0
    7.7694   47.5262  129.3645 C   0  0  0  0  0  0  0  0  0  0  0  0
    8.3492   47.5648  130.5928 C   0  0  0  0  0  0  0  0  0  0  0  0
   10.4372   45.5232  132.8696 C   0  0  0  0  0  0  0  0  0  0  0  0
   11.7308   45.3931  133.5517 C   0  0  0  0  0  0  0  0  0  0  0  0
   11.5726   44.0151  134.2244 C   0  0  0  0  0  0  0  0  0  0  0  0
   10.5444   43.3111  133.4227 C   0  0  0  0  0  0  0  0  0  0  0  0
   10.0162   42.2610  133.6693 O   0  0  0  0  0  0  0  0  0  0  0  0
    7.2445   51.9761  129.2966 H   0  0  0  0  0  0  0  0  0  0  0  0
    6.6357   47.8105  127.0465 H   0  0  0  0  0  0  0  0  0  0  0  0
  2  1  1  0  0  0
  2  3  1  0  0  0
  3  4  1  0  0  0
  4  5  1  0  0  0
  5  6  1  0  0  0
  6  7  1  0  0  0
  7  8  1  0  0  0
  8  9  1  0  0  0
  9 10  2  0  0  0
 10 11  1  0  0  0
 11 12  1  0  0  0
 11 13  2  0  0  0
 13 14  1  0  0  0
 13 15  1  0  0  0
 15 16  2  0  0  0
  6 17  1  0  0  0
 17 18  1  0  0  0
 18 19  1  0  0  0
 19 20  1  0  0  0
 20 21  2  0  0  0
 17  2  1  0  0  0
 20  2  1  0  0  0
 16  5  1  0  0  0
 16  9  1  0  0  0
 12 22  1  0  0  0
 14 23  1  0  0  0
M  END
> <minimizedAffinity>
-10.64715

> <CNNscore>
0.8346090317

> <CNNaffinity>
7.6288490295

> <CNN_VS>
6.3671064377

> <CNNaffinity_variance>
0.7085468173

$$$$
[H]Oc1c([H])c2c(c([H])c1O[H])[C@@]1([H])C([H])([H])C([H])([H])[C@]3(C([H])([H])[H])C(=O)C([H])([H])C([H])([H])[C@@]3([H])[C@]1([H])C([H])([H])C2([H])[H]


 23 26  0  0  0  0  0  0  0  0999 V2000
   10.4571   44.4758  133.9068 C   0  0  0  0  0  0  0  0  0  0  0  0
   11.0014   44.4363  132.5009 C   0  0  0  0  0  0  0  0  0  0  0  0
   11.7814   45.6724  132.1746 C   0  0  0  0  0  0  0  0  0  0  0  0
   10.7888   46.8254  132.0743 C   0  0  0  0  0  0  0  0  0  0  0  0
    9.7850   46.5014  131.0245 C   0  0  0  0  0  0  0  0  0  0  0  0
    8.9683   45.2955  131.4698 C   0  0  0  0  0  0  0  0  0  0  0  0
    7.7870   45.1238  130.5578 C   0  0  0  0  0  0  0  0  0  0  0  0
    7.9628   45.8779  129.2321 C   0  0  0  0  0  0  0  0  0  0  0  0
    7.9823   47.3294  129.6385 C   0  0  0  0  0  0  0  0  0  0  0  0
    7.1302   48.2644  129.1290 C   0  0  0  0  0  0  0  0  0  0  0  0
    7.2547   49.5561  129.5880 C   0  0  0  0  0  0  0  0  0  0  0  0
    6.4098   50.5326  129.0960 O   0  0  0  0  0  0  0  0  0  0  0  0
    8.2231   49.8816  130.5410 C   0  0  0  0  0  0  0  0  0  0  0  0
    8.3228   51.2015  130.9855 O   0  0  0  0  0  0  0  0  0  0  0  0
    9.0713   48.9130  131.0380 C   0  0  0  0  0  0  0  0  0  0  0  0
    8.9567   47.6348  130.5914 C   0  0  0  0  0  0  0  0  0  0  0  0
    9.9144   44.1679  131.4714 C   0  0  0  0  0  0  0  0  0  0  0  0
    9.4435   42.8342  131.8652 C   0  0  0  0  0  0  0  0  0  0  0  0
   10.7820   42.1027  132.0890 C   0  0  0  0  0  0  0  0  0  0  0  0
   11.7655   43.1759  132.3658 C   0  0  0  0  0  0  0  0  0  0  0  0
   12.9575   43.0684  132.4657 O   0  0  0  0  0  0  0  0  0  0  0  0
    5.7150   50.3006  128.4129 H   0  0  0  0  0  0  0  0  0  0  0  0
    9.0181   51.4307  131.6685 H   0  0  0  0  0  0  0  0  0  0  0  0
  2  1  1  0  0  0
  2  3  1  0  0  0
  3  4  1  0  0  0
  4  5  1  0  0  0
  5  6  1  0  0  0
  6  7  1  0  0  0
  7  8  1  0  0  0
  8  9  1  0  0  0
  9 10  2  0  0  0
 10 11  1  0  0  0
 11 12  1  0  0  0
 11 13  2  0  0  0
 13 14  1  0  0  0
 13 15  1  0  0  0
 15 16  2  0  0  0
  6 17  1  0  0  0
 17 18  1  0  0  0
 18 19  1  0  0  0
 19 20  1  0  0  0
 20 21  2  0  0  0
 17  2  1  0  0  0
 20  2  1  0  0  0
 16  5  1  0  0  0
 16  9  1  0  0  0
 12 22  1  0  0  0
 14 23  1  0  0  0
M  END
> <minimizedAffinity>
-9.17783

> <CNNscore>
0.5929770470

> <CNNaffinity>
7.4519286156

> <CNN_VS>
4.4188227654

> <CNNaffinity_variance>
0.8969268799

$$$$
[H]Oc1c([H])c2c(c([H])c1O[H])[C@@]1([H])C([H])([H])C([H])([H])[C@]3(C([H])([H])[H])C(=O)C([H])([H])C([H])([H])[C@@]3([H])[C@]1([H])C([H])([H])C2([H])[H]


 23 26  0  0  0  0  0  0  0  0999 V2000
   10.3682   42.8881  129.9425 C   0  0  0  0  0  0  0  0  0  0  0  0
   10.5221   43.8445  131.0983 C   0  0  0  0  0  0  0  0  0  0  0  0
    9.3031   43.8618  131.9683 C   0  0  0  0  0  0  0  0  0  0  0  0
    8.1865   44.5333  131.1763 C   0  0  0  0  0  0  0  0  0  0  0  0
    8.6265   45.9040  130.7990 C   0  0  0  0  0  0  0  0  0  0  0  0
    9.8055   45.8037  129.8400 C   0  0  0  0  0  0  0  0  0  0  0  0
   10.0853   47.1541  129.2444 C   0  0  0  0  0  0  0  0  0  0  0  0
    9.4500   48.2903  130.0582 C   0  0  0  0  0  0  0  0  0  0  0  0
    7.9678   48.0576  129.9133 C   0  0  0  0  0  0  0  0  0  0  0  0
    7.1020   48.9976  129.4373 C   0  0  0  0  0  0  0  0  0  0  0  0
    5.7716   48.6539  129.3549 C   0  0  0  0  0  0  0  0  0  0  0  0
    4.8628   49.5790  128.8776 O   0  0  0  0  0  0  0  0  0  0  0  0
    5.3398   47.3847  129.7483 C   0  0  0  0  0  0  0  0  0  0  0  0
    3.9833   47.0681  129.6520 O   0  0  0  0  0  0  0  0  0  0  0  0
    6.2402   46.4544  130.2262 C   0  0  0  0  0  0  0  0  0  0  0  0
    7.5558   46.7839  130.3115 C   0  0  0  0  0  0  0  0  0  0  0  0
   10.9067   45.2428  130.6396 C   0  0  0  0  0  0  0  0  0  0  0  0
   12.2097   45.0083  130.0051 C   0  0  0  0  0  0  0  0  0  0  0  0
   12.8876   44.0997  131.0498 C   0  0  0  0  0  0  0  0  0  0  0  0
   11.7719   43.4789  131.8018 C   0  0  0  0  0  0  0  0  0  0  0  0
   11.8431   42.8050  132.7934 O   0  0  0  0  0  0  0  0  0  0  0  0
    5.1711   50.4891  128.5952 H   0  0  0  0  0  0  0  0  0  0  0  0
    3.6777   46.1576  129.9349 H   0  0  0  0  0  0  0  0  0  0  0  0
  2  1  1  0  0  0
  2  3  1  0  0  0
  3  4  1  0  0  0
  4  5  1  0  0  0
  5  6  1  0  0  0
  6  7  1  0  0  0
  7  8  1  0  0  0
  8  9  1  0  0  0
  9 10  2  0  0  0
 10 11  1  0  0  0
 11 12  1  0  0  0
 11 13  2  0  0  0
 13 14  1  0  0  0
 13 15  1  0  0  0
 15 16  2  0  0  0
  6 17  1  0  0  0
 17 18  1  0  0  0
 18 19  1  0  0  0
 19 20  1  0  0  0
 20 21  2  0  0  0
 17  2  1  0  0  0
 20  2  1  0  0  0
 16  5  1  0  0  0
 16  9  1  0  0  0
 12 22  1  0  0  0
 14 23  1  0  0  0
M  END
> <minimizedAffinity>
-7.06234

> <CNNscore>
0.4062297344

> <CNNaffinity>
6.9501791000

> <CNN_VS>
2.8233695030

> <CNNaffinity_variance>
0.5420535803

$$$$
[H]Oc1c([H])c2c(c([H])c1O[H])[C@@]1([H])C([H])([H])C([H])([H])[C@]3(C([H])([H])[H])C(=O)C([H])([H])C([H])([H])[C@@]3([H])[C@]1([H])C([H])([H])C2([H])[H]


 23 26  0  0  0  0  0  0  0  0999 V2000
    8.6420   50.3201  128.7177 C   0  0  0  0  0  0  0  0  0  0  0  0
    8.6220   49.8507  130.1507 C   0  0  0  0  0  0  0  0  0  0  0  0
    9.9690   49.3690  130.5941 C   0  0  0  0  0  0  0  0  0  0  0  0
   10.2512   48.0629  129.8598 C   0  0  0  0  0  0  0  0  0  0  0  0
    9.1723   47.0902  130.1838 C   0  0  0  0  0  0  0  0  0  0  0  0
    7.8534   47.6009  129.6189 C   0  0  0  0  0  0  0  0  0  0  0  0
    6.8180   46.5156  129.6997 C   0  0  0  0  0  0  0  0  0  0  0  0
    7.2119   45.4103  130.6897 C   0  0  0  0  0  0  0  0  0  0  0  0
    8.4375   44.7873  130.0715 C   0  0  0  0  0  0  0  0  0  0  0  0
    8.5433   43.4576  129.7879 C   0  0  0  0  0  0  0  0  0  0  0  0
    9.7191   43.0192  129.2221 C   0  0  0  0  0  0  0  0  0  0  0  0
    9.8652   41.6787  128.9199 O   0  0  0  0  0  0  0  0  0  0  0  0
   10.7565   43.9158  128.9541 C   0  0  0  0  0  0  0  0  0  0  0  0
   11.9363   43.4383  128.3796 O   0  0  0  0  0  0  0  0  0  0  0  0
   10.6197   45.2562  129.2525 C   0  0  0  0  0  0  0  0  0  0  0  0
    9.4629   45.6991  129.8113 C   0  0  0  0  0  0  0  0  0  0  0  0
    7.5415   48.8094  130.3991 C   0  0  0  0  0  0  0  0  0  0  0  0
    6.3171   49.5627  130.1003 C   0  0  0  0  0  0  0  0  0  0  0  0
    6.5937   50.8834  130.8458 C   0  0  0  0  0  0  0  0  0  0  0  0
    8.0690   50.9575  130.9631 C   0  0  0  0  0  0  0  0  0  0  0  0
    8.7144   51.7528  131.5903 O   0  0  0  0  0  0  0  0  0  0  0  0
    9.1223   41.0349  129.1114 H   0  0  0  0  0  0  0  0  0  0  0  0
   12.6774   44.0840  128.1891 H   0  0  0  0  0  0  0  0  0  0  0  0
  2  1  1  0  0  0
  2  3  1  0  0  0
  3  4  1  0  0  0
  4  5  1  0  0  0
  5  6  1  0  0  0
  6  7  1  0  0  0
  7  8  1  0  0  0
  8  9  1  0  0  0
  9 10  2  0  0  0
 10 11  1  0  0  0
 11 12  1  0  0  0
 11 13  2  0  0  0
 13 14  1  0  0  0
 13 15  1  0  0  0
 15 16  2  0  0  0
  6 17  1  0  0  0
 17 18  1  0  0  0
 18 19  1  0  0  0
 19 20  1  0  0  0
 20 21  2  0  0  0
 17  2  1  0  0  0
 20  2  1  0  0  0
 16  5  1  0  0  0
 16  9  1  0  0  0
 12 22  1  0  0  0
 14 23  1  0  0  0
M  END
> <minimizedAffinity>
3.25754

> <CNNscore>
0.3835508525

> <CNNaffinity>
6.3821945190

> <CNN_VS>
2.4478962421

> <CNNaffinity_variance>
1.0018457174

$$$$
[H]Oc1c([H])c2c(c([H])c1O[H])[C@@]1([H])C([H])([H])C([H])([H])[C@]3(C([H])([H])[H])C(=O)C([H])([H])C([H])([H])[C@@]3([H])[C@]1([H])C([H])([H])C2([H])[H]


 23 26  0  0  0  0  0  0  0  0999 V2000
   10.6794   43.6226  129.0185 C   0  0  0  0  0  0  0  0  0  0  0  0
    9.7245   43.5624  130.1842 C   0  0  0  0  0  0  0  0  0  0  0  0
    8.3824   44.1247  129.8299 C   0  0  0  0  0  0  0  0  0  0  0  0
    8.5484   45.6311  129.6622 C   0  0  0  0  0  0  0  0  0  0  0  0
    9.0769   46.1976  130.9328 C   0  0  0  0  0  0  0  0  0  0  0  0
   10.4793   45.6557  131.1760 C   0  0  0  0  0  0  0  0  0  0  0  0
   11.1249   46.4172  132.2984 C   0  0  0  0  0  0  0  0  0  0  0  0
   10.0980   47.1749  133.1517 C   0  0  0  0  0  0  0  0  0  0  0  0
    9.5287   48.2038  132.2085 C   0  0  0  0  0  0  0  0  0  0  0  0
    9.5322   49.5431  132.4656 C   0  0  0  0  0  0  0  0  0  0  0  0
    8.9804   50.3745  131.5174 C   0  0  0  0  0  0  0  0  0  0  0  0
    8.9647   51.7381  131.7409 O   0  0  0  0  0  0  0  0  0  0  0  0
    8.4408   49.8504  130.3401 C   0  0  0  0  0  0  0  0  0  0  0  0
    7.8887   50.7214  129.3986 O   0  0  0  0  0  0  0  0  0  0  0  0
    8.4519   48.4900  130.1082 C   0  0  0  0  0  0  0  0  0  0  0  0
    8.9943   47.6606  131.0380 C   0  0  0  0  0  0  0  0  0  0  0  0
   10.2984   44.2174  131.4313 C   0  0  0  0  0  0  0  0  0  0  0  0
   11.4744   43.3811  131.7018 C   0  0  0  0  0  0  0  0  0  0  0  0
   10.8807   41.9697  131.5222 C   0  0  0  0  0  0  0  0  0  0  0  0
    9.6968   42.1582  130.6513 C   0  0  0  0  0  0  0  0  0  0  0  0
    8.8617   41.3438  130.3649 O   0  0  0  0  0  0  0  0  0  0  0  0
    9.3513   52.1151  132.5844 H   0  0  0  0  0  0  0  0  0  0  0  0
    7.5030   50.3420  128.5562 H   0  0  0  0  0  0  0  0  0  0  0  0
  2  1  1  0  0  0
  2  3  1  0  0  0
  3  4  1  0  0  0
  4  5  1  0  0  0
  5  6  1  0  0  0
  6  7  1  0  0  0
  7  8  1  0  0  0
  8  9  1  0  0  0
  9 10  2  0  0  0
 10 11  1  0  0  0
 11 12  1  0  0  0
 11 13  2  0  0  0
 13 14  1  0  0  0
 13 15  1  0  0  0
 15 16  2  0  0  0
  6 17  1  0  0  0
 17 18  1  0  0  0
 18 19  1  0  0  0
 19 20  1  0  0  0
 20 21  2  0  0  0
 17  2  1  0  0  0
 20  2  1  0  0  0
 16  5  1  0  0  0
 16  9  1  0  0  0
 12 22  1  0  0  0
 14 23  1  0  0  0
M  END
> <minimizedAffinity>
-6.24709

> <CNNscore>
0.3772874773

> <CNNaffinity>
7.0729432106

> <CNN_VS>
2.6685328484

> <CNNaffinity_variance>
0.8755472898

$$$$
[H]Oc1c([H])c2c(c([H])c1O[H])[C@@]1([H])C([H])([H])C([H])([H])[C@]3(C([H])([H])[H])C(=O)C([H])([H])C([H])([H])[C@@]3([H])[C@]1([H])C([H])([H])C2([H])[H]


 23 26  0  0  0  0  0  0  0  0999 V2000
   12.3716   42.8899  133.5197 C   0  0  0  0  0  0  0  0  0  0  0  0
   11.1224   43.7257  133.6441 C   0  0  0  0  0  0  0  0  0  0  0  0
    9.9192   43.0036  133.1209 C   0  0  0  0  0  0  0  0  0  0  0  0
   10.0640   42.9134  131.6057 C   0  0  0  0  0  0  0  0  0  0  0  0
   10.1762   44.2909  131.0539 C   0  0  0  0  0  0  0  0  0  0  0  0
   11.4686   44.9245  131.5517 C   0  0  0  0  0  0  0  0  0  0  0  0
   11.7278   46.1973  130.7970 C   0  0  0  0  0  0  0  0  0  0  0  0
   10.4665   46.7250  130.0987 C   0  0  0  0  0  0  0  0  0  0  0  0
   10.1538   45.6717  129.0667 C   0  0  0  0  0  0  0  0  0  0  0  0
   10.0267   45.9380  127.7352 C   0  0  0  0  0  0  0  0  0  0  0  0
    9.7403   44.8823  126.8996 C   0  0  0  0  0  0  0  0  0  0  0  0
    9.6037   45.1112  125.5437 O   0  0  0  0  0  0  0  0  0  0  0  0
    9.5885   43.5913  127.4119 C   0  0  0  0  0  0  0  0  0  0  0  0
    9.2983   42.5425  126.5369 O   0  0  0  0  0  0  0  0  0  0  0  0
    9.7232   43.3532  128.7645 C   0  0  0  0  0  0  0  0  0  0  0  0
   10.0058   44.3886  129.5979 C   0  0  0  0  0  0  0  0  0  0  0  0
   11.2812   45.0952  133.0016 C   0  0  0  0  0  0  0  0  0  0  0  0
   12.3615   45.6846  133.8023 C   0  0  0  0  0  0  0  0  0  0  0  0
   11.9048   45.3194  135.2287 C   0  0  0  0  0  0  0  0  0  0  0  0
   11.0185   44.1440  135.0600 C   0  0  0  0  0  0  0  0  0  0  0  0
   10.3374   43.6149  135.8958 O   0  0  0  0  0  0  0  0  0  0  0  0
    9.7123   46.0361  125.1752 H   0  0  0  0  0  0  0  0  0  0  0  0
    9.1903   41.6189  126.9078 H   0  0  0  0  0  0  0  0  0  0  0  0
  2  1  1  0  0  0
  2  3  1  0  0  0
  3  4  1  0  0  0
  4  5  1  0  0  0
  5  6  1  0  0  0
  6  7  1  0  0  0
  7  8  1  0  0  0
  8  9  1  0  0  0
  9 10  2  0  0  0
 10 11  1  0  0  0
 11 12  1  0  0  0
 11 13  2  0  0  0
 13 14  1  0  0  0
 13 15  1  0  0  0
 15 16  2  0  0  0
  6 17  1  0  0  0
 17 18  1  0  0  0
 18 19  1  0  0  0
 19 20  1  0  0  0
 20 21  2  0  0  0
 17  2  1  0  0  0
 20  2  1  0  0  0
 16  5  1  0  0  0
 16  9  1  0  0  0
 12 22  1  0  0  0
 14 23  1  0  0  0
M  END
> <minimizedAffinity>
9.74159

> <CNNscore>
0.3691839278

> <CNNaffinity>
6.6463408470

> <CNN_VS>
2.4537222385

> <CNNaffinity_variance>
1.5627918243

$$$$
[H]Oc1c([H])c2c(c([H])c1O[H])[C@@]1([H])C([H])([H])C([H])([H])[C@]3(C([H])([H])[H])C(=O)C([H])([H])C([H])([H])[C@@]3([H])[C@]1([H])C([H])([H])C2([H])[H]


 23 26  0  0  0  0  0  0  0  0999 V2000
    9.0393   49.0257  130.4618 C   0  0  0  0  0  0  0  0  0  0  0  0
    8.3225   47.7198  130.2269 C   0  0  0  0  0  0  0  0  0  0  0  0
    7.4110   47.3764  131.3645 C   0  0  0  0  0  0  0  0  0  0  0  0
    8.2875   47.0208  132.5605 C   0  0  0  0  0  0  0  0  0  0  0  0
    9.1695   45.8827  132.1843 C   0  0  0  0  0  0  0  0  0  0  0  0
   10.1303   46.3351  131.0926 C   0  0  0  0  0  0  0  0  0  0  0  0
   11.1935   45.2924  130.8949 C   0  0  0  0  0  0  0  0  0  0  0  0
   10.7881   43.9320  131.4797 C   0  0  0  0  0  0  0  0  0  0  0  0
   10.7061   44.1833  132.9637 C   0  0  0  0  0  0  0  0  0  0  0  0
   11.4080   43.4667  133.8876 C   0  0  0  0  0  0  0  0  0  0  0  0
   11.2417   43.8009  135.2126 C   0  0  0  0  0  0  0  0  0  0  0  0
   11.9355   43.0982  136.1791 O   0  0  0  0  0  0  0  0  0  0  0  0
   10.3820   44.8387  135.5813 C   0  0  0  0  0  0  0  0  0  0  0  0
   10.2361   45.1523  136.9341 O   0  0  0  0  0  0  0  0  0  0  0  0
    9.6850   45.5460  134.6229 C   0  0  0  0  0  0  0  0  0  0  0  0
    9.8421   45.2238  133.3122 C   0  0  0  0  0  0  0  0  0  0  0  0
    9.2850   46.5845  129.9137 C   0  0  0  0  0  0  0  0  0  0  0  0
    9.9074   47.0470  128.6670 C   0  0  0  0  0  0  0  0  0  0  0  0
    8.6716   47.5278  127.8807 C   0  0  0  0  0  0  0  0  0  0  0  0
    7.6500   47.8234  128.9125 C   0  0  0  0  0  0  0  0  0  0  0  0
    6.4933   48.0968  128.7401 O   0  0  0  0  0  0  0  0  0  0  0  0
   12.5522   42.3541  135.9162 H   0  0  0  0  0  0  0  0  0  0  0  0
    9.6191   45.8966  137.1943 H   0  0  0  0  0  0  0  0  0  0  0  0
  2  1  1  0  0  0
  2  3  1  0  0  0
  3  4  1  0  0  0
  4  5  1  0  0  0
  5  6  1  0  0  0
  6  7  1  0  0  0
  7  8  1  0  0  0
  8  9  1  0  0  0
  9 10  2  0  0  0
 10 11  1  0  0  0
 11 12  1  0  0  0
 11 13  2  0  0  0
 13 14  1  0  0  0
 13 15  1  0  0  0
 15 16  2  0  0  0
  6 17  1  0  0  0
 17 18  1  0  0  0
 18 19  1  0  0  0
 19 20  1  0  0  0
 20 21  2  0  0  0
 17  2  1  0  0  0
 20  2  1  0  0  0
 16  5  1  0  0  0
 16  9  1  0  0  0
 12 22  1  0  0  0
 14 23  1  0  0  0
M  END
> <minimizedAffinity>
-0.66385

> <CNNscore>
0.3057495356

> <CNNaffinity>
6.7029457092

> <CNN_VS>
2.0494225025

> <CNNaffinity_variance>
0.9069916010

$$$$
[H]Oc1c([H])c2c(c([H])c1O[H])[C@@]1([H])C([H])([H])C([H])([H])[C@]3(C([H])([H])[H])C(=O)C([H])([H])C([H])([H])[C@@]3([H])[C@]1([H])C([H])([H])C2([H])[H]


 23 26  0  0  0  0  0  0  0  0999 V2000
    9.7192   49.5826  130.2058 C   0  0  0  0  0  0  0  0  0  0  0  0
    8.4667   48.8780  130.6630 C   0  0  0  0  0  0  0  0  0  0  0  0
    8.5290   48.5265  132.1175 C   0  0  0  0  0  0  0  0  0  0  0  0
    9.5650   47.4190  132.2755 C   0  0  0  0  0  0  0  0  0  0  0  0
    9.1574   46.2605  131.4350 C   0  0  0  0  0  0  0  0  0  0  0  0
    9.2110   46.6649  129.9676 C   0  0  0  0  0  0  0  0  0  0  0  0
    9.0667   45.4442  129.1041 C   0  0  0  0  0  0  0  0  0  0  0  0
    8.4765   44.2547  129.8746 C   0  0  0  0  0  0  0  0  0  0  0  0
    9.5288   43.9290  130.9036 C   0  0  0  0  0  0  0  0  0  0  0  0
   10.0975   42.6962  131.0333 C   0  0  0  0  0  0  0  0  0  0  0  0
   11.0488   42.5344  132.0150 C   0  0  0  0  0  0  0  0  0  0  0  0
   11.6483   41.3001  132.1783 O   0  0  0  0  0  0  0  0  0  0  0  0
   11.4077   43.6033  132.8400 C   0  0  0  0  0  0  0  0  0  0  0  0
   12.3763   43.4054  133.8262 O   0  0  0  0  0  0  0  0  0  0  0  0
   10.8143   44.8395  132.6844 C   0  0  0  0  0  0  0  0  0  0  0  0
    9.8740   45.0096  131.7182 C   0  0  0  0  0  0  0  0  0  0  0  0
    8.1437   47.6652  129.8038 C   0  0  0  0  0  0  0  0  0  0  0  0
    7.9245   48.2743  128.4860 C   0  0  0  0  0  0  0  0  0  0  0  0
    7.0324   49.4746  128.8602 C   0  0  0  0  0  0  0  0  0  0  0  0
    7.3224   49.7390  130.2890 C   0  0  0  0  0  0  0  0  0  0  0  0
    6.7527   50.5002  131.0229 O   0  0  0  0  0  0  0  0  0  0  0  0
   11.3920   40.5331  131.5875 H   0  0  0  0  0  0  0  0  0  0  0  0
   12.6308   44.1738  134.4154 H   0  0  0  0  0  0  0  0  0  0  0  0
  2  1  1  0  0  0
  2  3  1  0  0  0
  3  4  1  0  0  0
  4  5  1  0  0  0
  5  6  1  0  0  0
  6  7  1  0  0  0
  7  8  1  0  0  0
  8  9  1  0  0  0
  9 10  2  0  0  0
 10 11  1  0  0  0
 11 12  1  0  0  0
 11 13  2  0  0  0
 13 14  1  0  0  0
 13 15  1  0  0  0
 15 16  2  0  0  0
  6 17  1  0  0  0
 17 18  1  0  0  0
 18 19  1  0  0  0
 19 20  1  0  0  0
 20 21  2  0  0  0
 17  2  1  0  0  0
 20  2  1  0  0  0
 16  5  1  0  0  0
 16  9  1  0  0  0
 12 22  1  0  0  0
 14 23  1  0  0  0
M  END
> <minimizedAffinity>
-8.99896

> <CNNscore>
0.2545323670

> <CNNaffinity>
6.9540872574

> <CNN_VS>
1.7700402737

> <CNNaffinity_variance>
0.1827531904

$$$$
[H]Oc1c([H])c2c(c([H])c1O[H])[C@@]1([H])C([H])([H])C([H])([H])[C@]3(C([H])([H])[H])C(=O)C([H])([H])C([H])([H])[C@@]3([H])[C@]1([H])C([H])([H])C2([H])[H]


 23 26  0  0  0  0  0  0  0  0999 V2000
   10.5391   46.8795  134.6247 C   0  0  0  0  0  0  0  0  0  0  0  0
    9.1704   47.0965  134.0298 C   0  0  0  0  0  0  0  0  0  0  0  0
    8.3447   45.8477  134.0713 C   0  0  0  0  0  0  0  0  0  0  0  0
    8.9488   44.8676  133.0716 C   0  0  0  0  0  0  0  0  0  0  0  0
    8.9461   45.4981  131.7235 C   0  0  0  0  0  0  0  0  0  0  0  0
    9.8800   46.7011  131.7330 C   0  0  0  0  0  0  0  0  0  0  0  0
   10.0956   47.1812  130.3260 C   0  0  0  0  0  0  0  0  0  0  0  0
    9.0213   46.6569  129.3628 C   0  0  0  0  0  0  0  0  0  0  0  0
    9.2443   45.1661  129.3451 C   0  0  0  0  0  0  0  0  0  0  0  0
    9.4693   44.4531  128.2046 C   0  0  0  0  0  0  0  0  0  0  0  0
    9.6589   43.0954  128.3299 C   0  0  0  0  0  0  0  0  0  0  0  0
    9.8897   42.3378  127.1975 O   0  0  0  0  0  0  0  0  0  0  0  0
    9.6194   42.4853  129.5861 C   0  0  0  0  0  0  0  0  0  0  0  0
    9.8157   41.1059  129.6783 O   0  0  0  0  0  0  0  0  0  0  0  0
    9.3895   43.2338  130.7225 C   0  0  0  0  0  0  0  0  0  0  0  0
    9.2011   44.5748  130.6096 C   0  0  0  0  0  0  0  0  0  0  0  0
    9.2397   47.6797  132.6268 C   0  0  0  0  0  0  0  0  0  0  0  0
    9.8941   48.9722  132.8654 C   0  0  0  0  0  0  0  0  0  0  0  0
    9.1150   49.4747  134.0971 C   0  0  0  0  0  0  0  0  0  0  0  0
    8.5693   48.2523  134.7323 C   0  0  0  0  0  0  0  0  0  0  0  0
    7.7887   48.1866  135.6427 O   0  0  0  0  0  0  0  0  0  0  0  0
    9.9184   42.7740  126.2964 H   0  0  0  0  0  0  0  0  0  0  0  0
    9.7866   40.6723  130.5803 H   0  0  0  0  0  0  0  0  0  0  0  0
  2  1  1  0  0  0
  2  3  1  0  0  0
  3  4  1  0  0  0
  4  5  1  0  0  0
  5  6  1  0  0  0
  6  7  1  0  0  0
  7  8  1  0  0  0
  8  9  1  0  0  0
  9 10  2  0  0  0
 10 11  1  0  0  0
 11 12  1  0  0  0
 11 13  2  0  0  0
 13 14  1  0  0  0
 13 15  1  0  0  0
 15 16  2  0  0  0
  6 17  1  0  0  0
 17 18  1  0  0  0
 18 19  1  0  0  0
 19 20  1  0  0  0
 20 21  2  0  0  0
 17  2  1  0  0  0
 20  2  1  0  0  0
 16  5  1  0  0  0
 16  9  1  0  0  0
 12 22  1  0  0  0
 14 23  1  0  0  0
M  END
> <minimizedAffinity>
-0.35631

> <CNNscore>
0.2449319065

> <CNNaffinity>
6.5996918678

> <CNN_VS>
1.6164751053

> <CNNaffinity_variance>
0.9587842822

$$$$
[H]OC(=O)[C@@]([H])(N([H])C(=O)[C@@]([H])(N([H])C(=O)[C@@]([H])(N([H])C(=O)[C@@]([H])(N([H])C(=O)[C@@]([H])(N([H])C(=O)[C@@]([H])(N([H])C(=O)[C@@]([H])(N([H])C(=O)C([H])([H])[H])C([H])([H])O[H])C([H])(C([H])([H])[H])C([H])([H])[H])C([H])(C([H])([H])[H])C([H])([H])[H])C([H])([H])O[H])C([H])([H])O[H])C([H])([H])O[H])C([H])([H])O[H]


 61 60  0  0  0  0  0  0  0  0999 V2000
    6.6309   51.4920  129.3223 C   0  0  0  0  0  0  0  0  0  0  0  0
    7.2809   52.9825  127.4680 C   0  0  0  0  0  0  0  0  0  0  0  0
    7.2100   53.9214  128.3474 O   0  0  0  0  0  0  0  0  0  0  0  0
    6.9757   51.7050  127.9279 N   0  0  0  0  0  0  0  0  0  0  0  0
    6.9739   50.8870  127.3005 H   0  0  0  0  0  0  0  0  0  0  0  0
    7.6698   53.4129  126.1269 C   0  0  0  0  0  0  0  0  0  0  0  0
    5.3594   54.4465  125.9128 C   0  0  0  0  0  0  0  0  0  0  0  0
    5.3387   54.6794  127.1705 O   0  0  0  0  0  0  0  0  0  0  0  0
    6.4846   53.8202  125.3492 N   0  0  0  0  0  0  0  0  0  0  0  0
    6.5112   53.6242  124.3347 H   0  0  0  0  0  0  0  0  0  0  0  0
    4.1858   54.8511  125.1180 C   0  0  0  0  0  0  0  0  0  0  0  0
    3.1688   56.9425  126.0303 C   0  0  0  0  0  0  0  0  0  0  0  0
    2.5123   56.2105  126.8364 O   0  0  0  0  0  0  0  0  0  0  0  0
    4.0524   56.3143  125.1093 N   0  0  0  0  0  0  0  0  0  0  0  0
    4.5946   56.8835  124.4400 H   0  0  0  0  0  0  0  0  0  0  0  0
    2.9970   58.4075  126.0731 C   0  0  0  0  0  0  0  0  0  0  0  0
    6.6650   59.3789  126.7663 C   0  0  0  0  0  0  0  0  0  0  0  0
    5.3217   58.7353  126.8827 C   0  0  0  0  0  0  0  0  0  0  0  0
    5.0809   57.9182  127.8051 O   0  0  0  0  0  0  0  0  0  0  0  0
    4.2971   59.0401  125.9504 N   0  0  0  0  0  0  0  0  0  0  0  0
    4.4681   59.7230  125.1632 H   0  0  0  0  0  0  0  0  0  0  0  0
    2.0954   58.8927  124.9418 C   0  0  0  0  0  0  0  0  0  0  0  0
    2.1812   57.9633  123.9087 O   0  0  0  0  0  0  0  0  0  0  0  0
    1.3198   57.4480  123.9065 H   0  0  0  0  0  0  0  0  0  0  0  0
    4.2730   54.3395  123.6888 C   0  0  0  0  0  0  0  0  0  0  0  0
    4.3346   55.4678  122.6849 C   0  0  0  0  0  0  0  0  0  0  0  0
    3.1177   53.3943  123.3916 C   0  0  0  0  0  0  0  0  0  0  0  0
    8.6089   54.6196  126.1962 C   0  0  0  0  0  0  0  0  0  0  0  0
    7.8497   55.9007  126.3871 C   0  0  0  0  0  0  0  0  0  0  0  0
    9.3917   54.7634  124.9008 C   0  0  0  0  0  0  0  0  0  0  0  0
    7.8001   50.9262  130.0163 C   0  0  0  0  0  0  0  0  0  0  0  0
    8.7420   51.6527  130.4681 O   0  0  0  0  0  0  0  0  0  0  0  0
    7.9030   49.5306  130.2021 N   0  0  0  0  0  0  0  0  0  0  0  0
    7.1715   48.8951  129.8625 H   0  0  0  0  0  0  0  0  0  0  0  0
    9.0568   48.9836  130.8735 C   0  0  0  0  0  0  0  0  0  0  0  0
    9.0721   47.5182  130.6800 C   0  0  0  0  0  0  0  0  0  0  0  0
    8.4444   46.7680  131.4545 O   0  0  0  0  0  0  0  0  0  0  0  0
    9.8264   47.0131  129.5851 N   0  0  0  0  0  0  0  0  0  0  0  0
   10.3291   47.6567  128.9658 H   0  0  0  0  0  0  0  0  0  0  0  0
    9.8555   45.5745  129.3858 C   0  0  0  0  0  0  0  0  0  0  0  0
   10.5804   44.9485  130.5025 C   0  0  0  0  0  0  0  0  0  0  0  0
   11.8288   44.8730  130.4719 O   0  0  0  0  0  0  0  0  0  0  0  0
    9.8794   44.4314  131.6087 N   0  0  0  0  0  0  0  0  0  0  0  0
    8.8371   44.5059  131.6199 H   0  0  0  0  0  0  0  0  0  0  0  0
   10.5754   43.7999  132.7263 C   0  0  0  0  0  0  0  0  0  0  0  0
   11.4294   42.6910  132.1756 C   0  0  0  0  0  0  0  0  0  0  0  0
   10.8577   41.8623  131.2244 O   0  0  0  0  0  0  0  0  0  0  0  0
   12.5950   42.4999  132.5340 O   0  0  0  0  0  0  0  0  0  0  0  0
   10.2996   41.0626  131.4675 H   0  0  0  0  0  0  0  0  0  0  0  0
    9.6132   43.1811  133.7207 C   0  0  0  0  0  0  0  0  0  0  0  0
    9.9642   41.8612  133.9267 O   0  0  0  0  0  0  0  0  0  0  0  0
    9.9540   41.6111  134.8946 H   0  0  0  0  0  0  0  0  0  0  0  0
   10.6602   45.3736  128.0887 C   0  0  0  0  0  0  0  0  0  0  0  0
   10.9149   44.0060  127.9707 O   0  0  0  0  0  0  0  0  0  0  0  0
   11.8973   43.8042  128.0497 H   0  0  0  0  0  0  0  0  0  0  0  0
    8.9895   49.3342  132.3622 C   0  0  0  0  0  0  0  0  0  0  0  0
   10.0904   48.6703  132.9490 O   0  0  0  0  0  0  0  0  0  0  0  0
    9.7634   47.7243  133.0868 H   0  0  0  0  0  0  0  0  0  0  0  0
    5.4269   50.5553  129.4265 C   0  0  0  0  0  0  0  0  0  0  0  0
    5.7213   49.3346  128.8166 O   0  0  0  0  0  0  0  0  0  0  0  0
    5.0460   48.6771  129.1712 H   0  0  0  0  0  0  0  0  0  0  0  0
 17 18  1  0  0  0
 18 19  2  0  0  0
 18 20  1  0  0  0
 20 16  1  0  0  0
 16 22  1  0  0  0
 22 23  1  0  0  0
 16 12  1  0  0  0
 12 13  2  0  0  0
 12 14  1  0  0  0
 14 11  1  0  0  0
 11 25  1  0  0  0
 25 26  1  0  0  0
 25 27  1  0  0  0
 11  7  1  0  0  0
  7  8  2  0  0  0
  7  9  1  0  0  0
  9  6  1  0  0  0
  6 28  1  0  0  0
 28 29  1  0  0  0
 28 30  1  0  0  0
  6  2  1  0  0  0
  2  3  2  0  0  0
  2  4  1  0  0  0
  4  1  1  0  0  0
  1 59  1  0  0  0
 59 60  1  0  0  0
  1 31  1  0  0  0
 31 32  2  0  0  0
 31 33  1  0  0  0
 33 35  1  0  0  0
 35 56  1  0  0  0
 56 57  1  0  0  0
 35 36  1  0  0  0
 36 37  2  0  0  0
 36 38  1  0  0  0
 38 40  1  0  0  0
 40 53  1  0  0  0
 53 54  1  0  0  0
 40 41  1  0  0  0
 41 42  2  0  0  0
 41 43  1  0  0  0
 43 45  1  0  0  0
 45 50  1  0  0  0
 50 51  1  0  0  0
 45 46  1  0  0  0
 46 47  1  0  0  0
 46 48  2  0  0  0
 20 21  1  0  0  0
 23 24  1  0  0  0
 14 15  1  0  0  0
  9 10  1  0  0  0
  4  5  1  0  0  0
 60 61  1  0  0  0
 33 34  1  0  0  0
 57 58  1  0  0  0
 38 39  1  0  0  0
 54 55  1  0  0  0
 43 44  1  0  0  0
 51 52  1  0  0  0
 47 49  1  0  0  0
M  END
> <minimizedAffinity>
2.56643

> <CNNscore>
0.5167661905

> <CNNaffinity>
6.8458023071

> <CNN_VS>
3.5376791954

> <CNNaffinity_variance>
0.2407836020

$$$$
[H]OC(=O)[C@@]([H])(N([H])C(=O)[C@@]([H])(N([H])C(=O)[C@@]([H])(N([H])C(=O)[C@@]([H])(N([H])C(=O)[C@@]([H])(N([H])C(=O)[C@@]([H])(N([H])C(=O)[C@@]([H])(N([H])C(=O)C([H])([H])[H])C([H])([H])O[H])C([H])(C([H])([H])[H])C([H])([H])[H])C([H])(C([H])([H])[H])C([H])([H])[H])C([H])([H])O[H])C([H])([H])O[H])C([H])([H])O[H])C([H])([H])O[H]


 61 60  0  0  0  0  0  0  0  0999 V2000
    9.2372   50.1349  131.4545 C   0  0  0  0  0  0  0  0  0  0  0  0
    7.5332   50.9633  129.8758 C   0  0  0  0  0  0  0  0  0  0  0  0
    7.3843   51.9270  130.7178 O   0  0  0  0  0  0  0  0  0  0  0  0
    8.4772   50.0020  130.2244 N   0  0  0  0  0  0  0  0  0  0  0  0
    8.6540   49.1745  129.6355 H   0  0  0  0  0  0  0  0  0  0  0  0
    6.6833   51.0355  128.6894 C   0  0  0  0  0  0  0  0  0  0  0  0
    7.1627   53.2611  127.5629 C   0  0  0  0  0  0  0  0  0  0  0  0
    6.4311   53.8626  128.4229 O   0  0  0  0  0  0  0  0  0  0  0  0
    7.3164   51.8665  127.6482 N   0  0  0  0  0  0  0  0  0  0  0  0
    7.9025   51.3693  126.9571 H   0  0  0  0  0  0  0  0  0  0  0  0
    7.8080   54.0756  126.5175 C   0  0  0  0  0  0  0  0  0  0  0  0
    7.9523   54.0350  124.0240 C   0  0  0  0  0  0  0  0  0  0  0  0
    9.1397   54.4755  124.1367 O   0  0  0  0  0  0  0  0  0  0  0  0
    7.1984   53.8056  125.2082 N   0  0  0  0  0  0  0  0  0  0  0  0
    6.2301   53.4527  125.1466 H   0  0  0  0  0  0  0  0  0  0  0  0
    7.3964   53.7771  122.6816 C   0  0  0  0  0  0  0  0  0  0  0  0
    3.5916   53.6933  123.3102 C   0  0  0  0  0  0  0  0  0  0  0  0
    4.9953   54.1846  123.1676 C   0  0  0  0  0  0  0  0  0  0  0  0
    5.2724   55.3948  123.3550 O   0  0  0  0  0  0  0  0  0  0  0  0
    6.0372   53.2877  122.8184 N   0  0  0  0  0  0  0  0  0  0  0  0
    5.8368   52.2639  122.6540 H   0  0  0  0  0  0  0  0  0  0  0  0
    7.3889   55.0446  121.8322 C   0  0  0  0  0  0  0  0  0  0  0  0
    8.6968   55.5183  121.7737 O   0  0  0  0  0  0  0  0  0  0  0  0
    9.0390   55.3195  120.8512 H   0  0  0  0  0  0  0  0  0  0  0  0
    7.7136   55.5615  126.8262 C   0  0  0  0  0  0  0  0  0  0  0  0
    6.4526   56.1785  126.2661 C   0  0  0  0  0  0  0  0  0  0  0  0
    8.9553   56.2873  126.3285 C   0  0  0  0  0  0  0  0  0  0  0  0
    6.4651   49.6425  128.0937 C   0  0  0  0  0  0  0  0  0  0  0  0
    5.3704   48.9019  128.8059 C   0  0  0  0  0  0  0  0  0  0  0  0
    7.7234   48.7999  128.2285 C   0  0  0  0  0  0  0  0  0  0  0  0
   10.3359   49.1544  131.4385 C   0  0  0  0  0  0  0  0  0  0  0  0
   11.1847   49.0972  130.4922 O   0  0  0  0  0  0  0  0  0  0  0  0
   10.4764   48.2348  132.5003 N   0  0  0  0  0  0  0  0  0  0  0  0
    9.8238   48.2365  133.2930 H   0  0  0  0  0  0  0  0  0  0  0  0
   11.5490   47.2705  132.4716 C   0  0  0  0  0  0  0  0  0  0  0  0
   11.2205   46.2195  131.4855 C   0  0  0  0  0  0  0  0  0  0  0  0
   11.8189   45.1247  131.4999 O   0  0  0  0  0  0  0  0  0  0  0  0
   10.2052   46.5128  130.5338 N   0  0  0  0  0  0  0  0  0  0  0  0
    9.7309   47.4213  130.5506 H   0  0  0  0  0  0  0  0  0  0  0  0
    9.8755   45.4916  129.5548 C   0  0  0  0  0  0  0  0  0  0  0  0
    9.6961   44.2043  130.2440 C   0  0  0  0  0  0  0  0  0  0  0  0
   10.1016   43.1484  129.7094 O   0  0  0  0  0  0  0  0  0  0  0  0
    9.0695   44.1497  131.5037 N   0  0  0  0  0  0  0  0  0  0  0  0
    8.7400   45.0415  131.9377 H   0  0  0  0  0  0  0  0  0  0  0  0
    8.8741   42.8840  132.2051 C   0  0  0  0  0  0  0  0  0  0  0  0
   10.2132   42.2110  132.3318 C   0  0  0  0  0  0  0  0  0  0  0  0
   11.1931   42.8774  133.0489 O   0  0  0  0  0  0  0  0  0  0  0  0
   10.4619   41.1107  131.8308 O   0  0  0  0  0  0  0  0  0  0  0  0
   11.7884   43.5735  132.6351 H   0  0  0  0  0  0  0  0  0  0  0  0
    7.9637   41.9435  131.4409 C   0  0  0  0  0  0  0  0  0  0  0  0
    8.3723   41.8918  130.1225 O   0  0  0  0  0  0  0  0  0  0  0  0
    8.3973   40.9574  129.7680 H   0  0  0  0  0  0  0  0  0  0  0  0
   11.1140   45.4057  128.6441 C   0  0  0  0  0  0  0  0  0  0  0  0
   10.7776   44.5803  127.5696 O   0  0  0  0  0  0  0  0  0  0  0  0
   11.3118   43.7278  127.5763 H   0  0  0  0  0  0  0  0  0  0  0  0
   11.7261   46.6688  133.8682 C   0  0  0  0  0  0  0  0  0  0  0  0
   12.4504   45.4723  133.6666 O   0  0  0  0  0  0  0  0  0  0  0  0
   11.7470   44.8010  133.3918 H   0  0  0  0  0  0  0  0  0  0  0  0
    8.3239   49.9130  132.6605 C   0  0  0  0  0  0  0  0  0  0  0  0
    7.8926   48.5858  132.6914 O   0  0  0  0  0  0  0  0  0  0  0  0
    7.5670   48.4213  133.6299 H   0  0  0  0  0  0  0  0  0  0  0  0
 17 18  1  0  0  0
 18 19  2  0  0  0
 18 20  1  0  0  0
 20 16  1  0  0  0
 16 22  1  0  0  0
 22 23  1  0  0  0
 16 12  1  0  0  0
 12 13  2  0  0  0
 12 14  1  0  0  0
 14 11  1  0  0  0
 11 25  1  0  0  0
 25 26  1  0  0  0
 25 27  1  0  0  0
 11  7  1  0  0  0
  7  8  2  0  0  0
  7  9  1  0  0  0
  9  6  1  0  0  0
  6 28  1  0  0  0
 28 29  1  0  0  0
 28 30  1  0  0  0
  6  2  1  0  0  0
  2  3  2  0  0  0
  2  4  1  0  0  0
  4  1  1  0  0  0
  1 59  1  0  0  0
 59 60  1  0  0  0
  1 31  1  0  0  0
 31 32  2  0  0  0
 31 33  1  0  0  0
 33 35  1  0  0  0
 35 56  1  0  0  0
 56 57  1  0  0  0
 35 36  1  0  0  0
 36 37  2  0  0  0
 36 38  1  0  0  0
 38 40  1  0  0  0
 40 53  1  0  0  0
 53 54  1  0  0  0
 40 41  1  0  0  0
 41 42  2  0  0  0
 41 43  1  0  0  0
 43 45  1  0  0  0
 45 50  1  0  0  0
 50 51  1  0  0  0
 45 46  1  0  0  0
 46 47  1  0  0  0
 46 48  2  0  0  0
 20 21  1  0  0  0
 23 24  1  0  0  0
 14 15  1  0  0  0
  9 10  1  0  0  0
  4  5  1  0  0  0
 60 61  1  0  0  0
 33 34  1  0  0  0
 57 58  1  0  0  0
 38 39  1  0  0  0
 54 55  1  0  0  0
 43 44  1  0  0  0
 51 52  1  0  0  0
 47 49  1  0  0  0
M  END
> <minimizedAffinity>
1.69098

> <CNNscore>
0.5085609555

> <CNNaffinity>
6.9104828835

> <CNN_VS>
3.5144016743

> <CNNaffinity_variance>
0.3175247312

$$$$
[H]OC(=O)[C@@]([H])(N([H])C(=O)[C@@]([H])(N([H])C(=O)[C@@]([H])(N([H])C(=O)[C@@]([H])(N([H])C(=O)[C@@]([H])(N([H])C(=O)[C@@]([H])(N([H])C(=O)[C@@]([H])(N([H])C(=O)C([H])([H])[H])C([H])([H])O[H])C([H])(C([H])([H])[H])C([H])([H])[H])C([H])(C([H])([H])[H])C([H])([H])[H])C([H])([H])O[H])C([H])([H])O[H])C([H])([H])O[H])C([H])([H])O[H]


 61 60  0  0  0  0  0  0  0  0999 V2000
    6.9499   50.8326  129.0765 C   0  0  0  0  0  0  0  0  0  0  0  0
    7.4003   52.8868  127.7882 C   0  0  0  0  0  0  0  0  0  0  0  0
    6.9048   53.4996  128.8075 O   0  0  0  0  0  0  0  0  0  0  0  0
    7.4318   51.4985  127.8795 N   0  0  0  0  0  0  0  0  0  0  0  0
    7.7815   50.9104  127.1083 H   0  0  0  0  0  0  0  0  0  0  0  0
    7.8482   53.7511  126.6986 C   0  0  0  0  0  0  0  0  0  0  0  0
    7.1739   53.7807  124.2498 C   0  0  0  0  0  0  0  0  0  0  0  0
    8.4049   53.7573  123.9027 O   0  0  0  0  0  0  0  0  0  0  0  0
    6.8462   53.7828  125.6167 N   0  0  0  0  0  0  0  0  0  0  0  0
    5.8551   53.8047  125.9091 H   0  0  0  0  0  0  0  0  0  0  0  0
    6.1577   53.8074  123.1824 C   0  0  0  0  0  0  0  0  0  0  0  0
    4.6747   55.3981  124.4115 C   0  0  0  0  0  0  0  0  0  0  0  0
    5.6793   56.1698  124.5210 O   0  0  0  0  0  0  0  0  0  0  0  0
    4.8424   54.1578  123.7357 N   0  0  0  0  0  0  0  0  0  0  0  0
    4.0452   53.5093  123.6360 H   0  0  0  0  0  0  0  0  0  0  0  0
    3.3771   55.8075  124.9828 C   0  0  0  0  0  0  0  0  0  0  0  0
    2.6859   59.5710  124.4967 C   0  0  0  0  0  0  0  0  0  0  0  0
    3.1011   58.2724  125.1076 C   0  0  0  0  0  0  0  0  0  0  0  0
    3.5706   58.2332  126.2714 O   0  0  0  0  0  0  0  0  0  0  0  0
    2.9692   57.0624  124.3792 N   0  0  0  0  0  0  0  0  0  0  0  0
    2.5780   57.0618  123.3983 H   0  0  0  0  0  0  0  0  0  0  0  0
    2.3022   54.7556  124.7258 C   0  0  0  0  0  0  0  0  0  0  0  0
    2.5328   53.6974  125.6008 O   0  0  0  0  0  0  0  0  0  0  0  0
    1.8245   53.7449  126.3104 H   0  0  0  0  0  0  0  0  0  0  0  0
    6.5255   54.7906  122.0824 C   0  0  0  0  0  0  0  0  0  0  0  0
    5.9625   54.3786  120.7416 C   0  0  0  0  0  0  0  0  0  0  0  0
    8.0349   54.9751  122.0178 C   0  0  0  0  0  0  0  0  0  0  0  0
    8.0372   55.1884  127.1899 C   0  0  0  0  0  0  0  0  0  0  0  0
    6.7443   55.9515  127.1773 C   0  0  0  0  0  0  0  0  0  0  0  0
    8.9989   55.9412  126.2845 C   0  0  0  0  0  0  0  0  0  0  0  0
    7.8315   49.6893  129.3677 C   0  0  0  0  0  0  0  0  0  0  0  0
    8.9941   49.8343  129.8641 O   0  0  0  0  0  0  0  0  0  0  0  0
    7.3943   48.3746  129.0977 N   0  0  0  0  0  0  0  0  0  0  0  0
    6.4641   48.1961  128.7009 H   0  0  0  0  0  0  0  0  0  0  0  0
    8.2681   47.2610  129.3758 C   0  0  0  0  0  0  0  0  0  0  0  0
    8.5925   47.2566  130.8179 C   0  0  0  0  0  0  0  0  0  0  0  0
    7.7190   46.9819  131.6654 O   0  0  0  0  0  0  0  0  0  0  0  0
    9.9284   47.5767  131.1866 N   0  0  0  0  0  0  0  0  0  0  0  0
   10.6230   47.7954  130.4654 H   0  0  0  0  0  0  0  0  0  0  0  0
   10.2607   47.5820  132.6007 C   0  0  0  0  0  0  0  0  0  0  0  0
   10.4946   46.1993  133.0453 C   0  0  0  0  0  0  0  0  0  0  0  0
   11.2312   45.9772  134.0318 O   0  0  0  0  0  0  0  0  0  0  0  0
    9.8953   45.1201  132.3680 N   0  0  0  0  0  0  0  0  0  0  0  0
    9.2800   45.3235  131.5482 H   0  0  0  0  0  0  0  0  0  0  0  0
   10.1168   43.7386  132.7860 C   0  0  0  0  0  0  0  0  0  0  0  0
   10.8254   43.0228  131.6690 C   0  0  0  0  0  0  0  0  0  0  0  0
   10.9341   43.6863  130.4581 O   0  0  0  0  0  0  0  0  0  0  0  0
   11.3025   41.8911  131.7927 O   0  0  0  0  0  0  0  0  0  0  0  0
   10.2086   43.6672  129.7627 H   0  0  0  0  0  0  0  0  0  0  0  0
    8.8155   43.0050  133.0422 C   0  0  0  0  0  0  0  0  0  0  0  0
    8.2532   42.6475  131.8323 O   0  0  0  0  0  0  0  0  0  0  0  0
    7.9181   41.7056  131.8317 H   0  0  0  0  0  0  0  0  0  0  0  0
    9.0015   48.1280  133.2982 C   0  0  0  0  0  0  0  0  0  0  0  0
    8.6797   47.2360  134.3228 O   0  0  0  0  0  0  0  0  0  0  0  0
    7.8038   46.7727  134.1489 H   0  0  0  0  0  0  0  0  0  0  0  0
    9.5396   47.3928  128.5335 C   0  0  0  0  0  0  0  0  0  0  0  0
   10.2256   46.1692  128.7047 O   0  0  0  0  0  0  0  0  0  0  0  0
   10.7135   46.2802  129.5825 H   0  0  0  0  0  0  0  0  0  0  0  0
    5.5061   50.3720  128.8739 C   0  0  0  0  0  0  0  0  0  0  0  0
    4.9460   50.0128  130.1011 O   0  0  0  0  0  0  0  0  0  0  0  0
    3.9486   50.0178  129.9632 H   0  0  0  0  0  0  0  0  0  0  0  0
 17 18  1  0  0  0
 18 19  2  0  0  0
 18 20  1  0  0  0
 20 16  1  0  0  0
 16 22  1  0  0  0
 22 23  1  0  0  0
 16 12  1  0  0  0
 12 13  2  0  0  0
 12 14  1  0  0  0
 14 11  1  0  0  0
 11 25  1  0  0  0
 25 26  1  0  0  0
 25 27  1  0  0  0
 11  7  1  0  0  0
  7  8  2  0  0  0
  7  9  1  0  0  0
  9  6  1  0  0  0
  6 28  1  0  0  0
 28 29  1  0  0  0
 28 30  1  0  0  0
  6  2  1  0  0  0
  2  3  2  0  0  0
  2  4  1  0  0  0
  4  1  1  0  0  0
  1 59  1  0  0  0
 59 60  1  0  0  0
  1 31  1  0  0  0
 31 32  2  0  0  0
 31 33  1  0  0  0
 33 35  1  0  0  0
 35 56  1  0  0  0
 56 57  1  0  0  0
 35 36  1  0  0  0
 36 37  2  0  0  0
 36 38  1  0  0  0
 38 40  1  0  0  0
 40 53  1  0  0  0
 53 54  1  0  0  0
 40 41  1  0  0  0
 41 42  2  0  0  0
 41 43  1  0  0  0
 43 45  1  0  0  0
 45 50  1  0  0  0
 50 51  1  0  0  0
 45 46  1  0  0  0
 46 47  1  0  0  0
 46 48  2  0  0  0
 20 21  1  0  0  0
 23 24  1  0  0  0
 14 15  1  0  0  0
  9 10  1  0  0  0
  4  5  1  0  0  0
 60 61  1  0  0  0
 33 34  1  0  0  0
 57 58  1  0  0  0
 38 39  1  0  0  0
 54 55  1  0  0  0
 43 44  1  0  0  0
 51 52  1  0  0  0
 47 49  1  0  0  0
M  END
> <minimizedAffinity>
-1.16295

> <CNNscore>
0.4923802614

> <CNNaffinity>
6.8288774490

> <CNN_VS>
3.3624043465

> <CNNaffinity_variance>
0.2576243877

$$$$
[H]OC(=O)[C@@]([H])(N([H])C(=O)[C@@]([H])(N([H])C(=O)[C@@]([H])(N([H])C(=O)[C@@]([H])(N([H])C(=O)[C@@]([H])(N([H])C(=O)[C@@]([H])(N([H])C(=O)[C@@]([H])(N([H])C(=O)C([H])([H])[H])C([H])([H])O[H])C([H])(C([H])([H])[H])C([H])([H])[H])C([H])(C([H])([H])[H])C([H])([H])[H])C([H])([H])O[H])C([H])([H])O[H])C([H])([H])O[H])C([H])([H])O[H]


 61 60  0  0  0  0  0  0  0  0999 V2000
    6.6505   51.0899  129.1809 C   0  0  0  0  0  0  0  0  0  0  0  0
    7.2780   53.0912  127.8834 C   0  0  0  0  0  0  0  0  0  0  0  0
    6.8026   53.7499  128.8833 O   0  0  0  0  0  0  0  0  0  0  0  0
    7.2081   51.7053  127.9898 N   0  0  0  0  0  0  0  0  0  0  0  0
    7.5338   51.0846  127.2339 H   0  0  0  0  0  0  0  0  0  0  0  0
    7.8133   53.9082  126.7966 C   0  0  0  0  0  0  0  0  0  0  0  0
    7.5476   53.7616  124.2747 C   0  0  0  0  0  0  0  0  0  0  0  0
    8.8033   53.9537  124.1236 O   0  0  0  0  0  0  0  0  0  0  0  0
    7.0088   53.7343  125.5727 N   0  0  0  0  0  0  0  0  0  0  0  0
    5.9952   53.5829  125.7069 H   0  0  0  0  0  0  0  0  0  0  0  0
    6.7278   53.5805  123.0632 C   0  0  0  0  0  0  0  0  0  0  0  0
    5.1033   55.2812  123.9051 C   0  0  0  0  0  0  0  0  0  0  0  0
    6.1010   56.0077  124.2111 O   0  0  0  0  0  0  0  0  0  0  0  0
    5.3452   54.0118  123.3107 N   0  0  0  0  0  0  0  0  0  0  0  0
    4.5543   53.3988  123.0563 H   0  0  0  0  0  0  0  0  0  0  0  0
    3.7373   55.7711  124.1727 C   0  0  0  0  0  0  0  0  0  0  0  0
    2.0293   53.2065  126.4929 C   0  0  0  0  0  0  0  0  0  0  0  0
    2.5559   53.8815  125.2685 C   0  0  0  0  0  0  0  0  0  0  0  0
    2.4100   53.3590  124.1363 O   0  0  0  0  0  0  0  0  0  0  0  0
    3.2292   55.1260  125.3689 N   0  0  0  0  0  0  0  0  0  0  0  0
    3.3682   55.5913  126.3067 H   0  0  0  0  0  0  0  0  0  0  0  0
    3.7208   57.2835  124.3741 C   0  0  0  0  0  0  0  0  0  0  0  0
    3.9007   57.5279  125.7330 O   0  0  0  0  0  0  0  0  0  0  0  0
    4.8364   57.8728  125.8468 H   0  0  0  0  0  0  0  0  0  0  0  0
    7.2968   54.3490  121.8810 C   0  0  0  0  0  0  0  0  0  0  0  0
    8.1163   55.5407  122.3202 C   0  0  0  0  0  0  0  0  0  0  0  0
    6.1827   54.7616  120.9298 C   0  0  0  0  0  0  0  0  0  0  0  0
    7.7721   55.3934  127.1646 C   0  0  0  0  0  0  0  0  0  0  0  0
    6.4248   55.9947  126.8863 C   0  0  0  0  0  0  0  0  0  0  0  0
    8.7802   56.1771  126.3394 C   0  0  0  0  0  0  0  0  0  0  0  0
    7.6404   50.1500  129.7338 C   0  0  0  0  0  0  0  0  0  0  0  0
    8.0685   50.2359  130.9290 O   0  0  0  0  0  0  0  0  0  0  0  0
    8.1470   49.1057  128.9305 N   0  0  0  0  0  0  0  0  0  0  0  0
    7.8352   48.9844  127.9597 H   0  0  0  0  0  0  0  0  0  0  0  0
    9.1244   48.1958  129.4763 C   0  0  0  0  0  0  0  0  0  0  0  0
    8.4839   46.8819  129.6962 C   0  0  0  0  0  0  0  0  0  0  0  0
    7.2957   46.8083  130.0698 O   0  0  0  0  0  0  0  0  0  0  0  0
    9.2762   45.7235  129.4653 N   0  0  0  0  0  0  0  0  0  0  0  0
   10.2488   45.8184  129.1563 H   0  0  0  0  0  0  0  0  0  0  0  0
    8.6619   44.4253  129.6828 C   0  0  0  0  0  0  0  0  0  0  0  0
    9.0915   43.9024  130.9891 C   0  0  0  0  0  0  0  0  0  0  0  0
    8.5101   42.9127  131.4869 O   0  0  0  0  0  0  0  0  0  0  0  0
   10.1541   44.5080  131.6866 N   0  0  0  0  0  0  0  0  0  0  0  0
   10.6311   45.3315  131.2548 H   0  0  0  0  0  0  0  0  0  0  0  0
   10.5950   44.0117  132.9872 C   0  0  0  0  0  0  0  0  0  0  0  0
   10.9107   45.1987  133.8552 C   0  0  0  0  0  0  0  0  0  0  0  0
    9.9214   45.6319  134.7224 O   0  0  0  0  0  0  0  0  0  0  0  0
   11.9964   45.7851  133.8219 O   0  0  0  0  0  0  0  0  0  0  0  0
    9.1929   46.2644  134.4407 H   0  0  0  0  0  0  0  0  0  0  0  0
   11.8563   43.1780  132.8814 C   0  0  0  0  0  0  0  0  0  0  0  0
   12.6713   43.7146  131.9038 O   0  0  0  0  0  0  0  0  0  0  0  0
   13.6265   43.7713  132.1934 H   0  0  0  0  0  0  0  0  0  0  0  0
    9.2338   43.5284  128.5697 C   0  0  0  0  0  0  0  0  0  0  0  0
   10.6226   43.5305  128.7131 O   0  0  0  0  0  0  0  0  0  0  0  0
   11.0746   43.9755  127.9322 H   0  0  0  0  0  0  0  0  0  0  0  0
    9.6653   48.7632  130.7913 C   0  0  0  0  0  0  0  0  0  0  0  0
    9.5690   47.7022  131.7197 O   0  0  0  0  0  0  0  0  0  0  0  0
    8.6062   47.7278  132.0252 H   0  0  0  0  0  0  0  0  0  0  0  0
    5.3461   50.3704  128.8366 C   0  0  0  0  0  0  0  0  0  0  0  0
    5.3743   49.0693  129.3415 O   0  0  0  0  0  0  0  0  0  0  0  0
    4.4167   48.7584  129.3616 H   0  0  0  0  0  0  0  0  0  0  0  0
 17 18  1  0  0  0
 18 19  2  0  0  0
 18 20  1  0  0  0
 20 16  1  0  0  0
 16 22  1  0  0  0
 22 23  1  0  0  0
 16 12  1  0  0  0
 12 13  2  0  0  0
 12 14  1  0  0  0
 14 11  1  0  0  0
 11 25  1  0  0  0
 25 26  1  0  0  0
 25 27  1  0  0  0
 11  7  1  0  0  0
  7  8  2  0  0  0
  7  9  1  0  0  0
  9  6  1  0  0  0
  6 28  1  0  0  0
 28 29  1  0  0  0
 28 30  1  0  0  0
  6  2  1  0  0  0
  2  3  2  0  0  0
  2  4  1  0  0  0
  4  1  1  0  0  0
  1 59  1  0  0  0
 59 60  1  0  0  0
  1 31  1  0  0  0
 31 32  2  0  0  0
 31 33  1  0  0  0
 33 35  1  0  0  0
 35 56  1  0  0  0
 56 57  1  0  0  0
 35 36  1  0  0  0
 36 37  2  0  0  0
 36 38  1  0  0  0
 38 40  1  0  0  0
 40 53  1  0  0  0
 53 54  1  0  0  0
 40 41  1  0  0  0
 41 42  2  0  0  0
 41 43  1  0  0  0
 43 45  1  0  0  0
 45 50  1  0  0  0
 50 51  1  0  0  0
 45 46  1  0  0  0
 46 47  1  0  0  0
 46 48  2  0  0  0
 20 21  1  0  0  0
 23 24  1  0  0  0
 14 15  1  0  0  0
  9 10  1  0  0  0
  4  5  1  0  0  0
 60 61  1  0  0  0
 33 34  1  0  0  0
 57 58  1  0  0  0
 38 39  1  0  0  0
 54 55  1  0  0  0
 43 44  1  0  0  0
 51 52  1  0  0  0
 47 49  1  0  0  0
M  END
> <minimizedAffinity>
-3.34965

> <CNNscore>
0.4736283720

> <CNNaffinity>
6.7970228195

> <CNN_VS>
3.2192628384

> <CNNaffinity_variance>
0.2056589574

$$$$
[H]OC(=O)[C@@]([H])(N([H])C(=O)[C@@]([H])(N([H])C(=O)[C@@]([H])(N([H])C(=O)[C@@]([H])(N([H])C(=O)[C@@]([H])(N([H])C(=O)[C@@]([H])(N([H])C(=O)[C@@]([H])(N([H])C(=O)C([H])([H])[H])C([H])([H])O[H])C([H])(C([H])([H])[H])C([H])([H])[H])C([H])(C([H])([H])[H])C([H])([H])[H])C([H])([H])O[H])C([H])([H])O[H])C([H])([H])O[H])C([H])([H])O[H]


 61 60  0  0  0  0  0  0  0  0999 V2000
    6.9697   51.3634  129.2275 C   0  0  0  0  0  0  0  0  0  0  0  0
    7.1530   53.2182  127.6124 C   0  0  0  0  0  0  0  0  0  0  0  0
    6.9007   53.9748  128.6243 O   0  0  0  0  0  0  0  0  0  0  0  0
    7.1861   51.8525  127.8775 N   0  0  0  0  0  0  0  0  0  0  0  0
    7.3510   51.1578  127.1338 H   0  0  0  0  0  0  0  0  0  0  0  0
    7.3624   53.9189  126.3474 C   0  0  0  0  0  0  0  0  0  0  0  0
    5.8905   54.1919  124.2953 C   0  0  0  0  0  0  0  0  0  0  0  0
    6.8893   53.9411  123.5362 O   0  0  0  0  0  0  0  0  0  0  0  0
    6.0722   54.1969  125.6891 N   0  0  0  0  0  0  0  0  0  0  0  0
    5.2732   54.4013  126.3123 H   0  0  0  0  0  0  0  0  0  0  0  0
    4.5914   54.4673  123.6558 C   0  0  0  0  0  0  0  0  0  0  0  0
    3.6449   56.2630  125.1117 C   0  0  0  0  0  0  0  0  0  0  0  0
    3.4915   55.3799  126.0136 O   0  0  0  0  0  0  0  0  0  0  0  0
    4.2042   55.8692  123.8646 N   0  0  0  0  0  0  0  0  0  0  0  0
    4.3358   56.5641  123.1125 H   0  0  0  0  0  0  0  0  0  0  0  0
    3.2424   57.6567  125.3824 C   0  0  0  0  0  0  0  0  0  0  0  0
    2.6377   59.2350  128.8496 C   0  0  0  0  0  0  0  0  0  0  0  0
    2.5799   58.9760  127.3793 C   0  0  0  0  0  0  0  0  0  0  0  0
    1.8890   59.7062  126.6271 O   0  0  0  0  0  0  0  0  0  0  0  0
    3.3076   57.8989  126.8115 N   0  0  0  0  0  0  0  0  0  0  0  0
    3.8978   57.2665  127.4173 H   0  0  0  0  0  0  0  0  0  0  0  0
    4.1556   58.6462  124.6648 C   0  0  0  0  0  0  0  0  0  0  0  0
    3.3433   59.5573  123.9950 O   0  0  0  0  0  0  0  0  0  0  0  0
    3.3887   60.4203  124.5056 H   0  0  0  0  0  0  0  0  0  0  0  0
    4.6243   54.1648  122.1660 C   0  0  0  0  0  0  0  0  0  0  0  0
    3.8033   52.9449  121.8163 C   0  0  0  0  0  0  0  0  0  0  0  0
    6.0611   54.0238  121.6843 C   0  0  0  0  0  0  0  0  0  0  0  0
    8.0565   55.2630  126.5810 C   0  0  0  0  0  0  0  0  0  0  0  0
    7.0825   56.4044  126.5294 C   0  0  0  0  0  0  0  0  0  0  0  0
    9.0945   55.5239  125.5012 C   0  0  0  0  0  0  0  0  0  0  0  0
    7.9539   50.3048  129.5093 C   0  0  0  0  0  0  0  0  0  0  0  0
    8.2660   49.4184  128.6514 O   0  0  0  0  0  0  0  0  0  0  0  0
    8.5902   50.2500  130.7682 N   0  0  0  0  0  0  0  0  0  0  0  0
    8.3814   50.9411  131.4984 H   0  0  0  0  0  0  0  0  0  0  0  0
    9.5451   49.2034  131.0399 C   0  0  0  0  0  0  0  0  0  0  0  0
    8.9375   47.9008  130.6949 C   0  0  0  0  0  0  0  0  0  0  0  0
    7.8134   47.5867  131.1360 O   0  0  0  0  0  0  0  0  0  0  0  0
    9.6857   47.0359  129.8492 N   0  0  0  0  0  0  0  0  0  0  0  0
   10.6055   47.3251  129.5017 H   0  0  0  0  0  0  0  0  0  0  0  0
    9.1038   45.7499  129.5062 C   0  0  0  0  0  0  0  0  0  0  0  0
    9.5341   44.7482  130.4939 C   0  0  0  0  0  0  0  0  0  0  0  0
    8.9485   43.6445  130.5592 O   0  0  0  0  0  0  0  0  0  0  0  0
   10.6022   45.0214  131.3696 N   0  0  0  0  0  0  0  0  0  0  0  0
   11.0828   45.9468  131.2993 H   0  0  0  0  0  0  0  0  0  0  0  0
   11.0440   44.0462  132.3627 C   0  0  0  0  0  0  0  0  0  0  0  0
   10.6529   44.5571  133.7222 C   0  0  0  0  0  0  0  0  0  0  0  0
    9.6473   45.5080  133.7778 O   0  0  0  0  0  0  0  0  0  0  0  0
   11.1849   44.1660  134.7651 O   0  0  0  0  0  0  0  0  0  0  0  0
    9.8239   46.4907  133.6625 H   0  0  0  0  0  0  0  0  0  0  0  0
   12.5495   43.8711  132.3591 C   0  0  0  0  0  0  0  0  0  0  0  0
   12.8655   42.6692  132.9621 O   0  0  0  0  0  0  0  0  0  0  0  0
   13.5530   42.1553  132.4496 H   0  0  0  0  0  0  0  0  0  0  0  0
    9.7101   45.3971  128.1357 C   0  0  0  0  0  0  0  0  0  0  0  0
   10.4799   44.2457  128.3109 O   0  0  0  0  0  0  0  0  0  0  0  0
   11.4583   44.4287  128.1650 H   0  0  0  0  0  0  0  0  0  0  0  0
    9.9352   49.2458  132.5196 C   0  0  0  0  0  0  0  0  0  0  0  0
   10.3884   47.9416  132.8206 O   0  0  0  0  0  0  0  0  0  0  0  0
    9.5407   47.4181  132.9885 H   0  0  0  0  0  0  0  0  0  0  0  0
    5.5421   50.8348  129.3701 C   0  0  0  0  0  0  0  0  0  0  0  0
    5.5636   49.4489  129.5358 O   0  0  0  0  0  0  0  0  0  0  0  0
    4.6670   49.2015  129.9216 H   0  0  0  0  0  0  0  0  0  0  0  0
 17 18  1  0  0  0
 18 19  2  0  0  0
 18 20  1  0  0  0
 20 16  1  0  0  0
 16 22  1  0  0  0
 22 23  1  0  0  0
 16 12  1  0  0  0
 12 13  2  0  0  0
 12 14  1  0  0  0
 14 11  1  0  0  0
 11 25  1  0  0  0
 25 26  1  0  0  0
 25 27  1  0  0  0
 11  7  1  0  0  0
  7  8  2  0  0  0
  7  9  1  0  0  0
  9  6  1  0  0  0
  6 28  1  0  0  0
 28 29  1  0  0  0
 28 30  1  0  0  0
  6  2  1  0  0  0
  2  3  2  0  0  0
  2  4  1  0  0  0
  4  1  1  0  0  0
  1 59  1  0  0  0
 59 60  1  0  0  0
  1 31  1  0  0  0
 31 32  2  0  0  0
 31 33  1  0  0  0
 33 35  1  0  0  0
 35 56  1  0  0  0
 56 57  1  0  0  0
 35 36  1  0  0  0
 36 37  2  0  0  0
 36 38  1  0  0  0
 38 40  1  0  0  0
 40 53  1  0  0  0
 53 54  1  0  0  0
 40 41  1  0  0  0
 41 42  2  0  0  0
 41 43  1  0  0  0
 43 45  1  0  0  0
 45 50  1  0  0  0
 50 51  1  0  0  0
 45 46  1  0  0  0
 46 47  1  0  0  0
 46 48  2  0  0  0
 20 21  1  0  0  0
 23 24  1  0  0  0
 14 15  1  0  0  0
  9 10  1  0  0  0
  4  5  1  0  0  0
 60 61  1  0  0  0
 33 34  1  0  0  0
 57 58  1  0  0  0
 38 39  1  0  0  0
 54 55  1  0  0  0
 43 44  1  0  0  0
 51 52  1  0  0  0
 47 49  1  0  0  0
M  END
> <minimizedAffinity>
-4.11417

> <CNNscore>
0.4648097456

> <CNNaffinity>
6.5070600510

> <CNN_VS>
3.0245449543

> <CNNaffinity_variance>
0.4597467482

$$$$
[H]OC(=O)[C@@]([H])(N([H])C(=O)[C@@]([H])(N([H])C(=O)[C@@]([H])(N([H])C(=O)[C@@]([H])(N([H])C(=O)[C@@]([H])(N([H])C(=O)[C@@]([H])(N([H])C(=O)[C@@]([H])(N([H])C(=O)C([H])([H])[H])C([H])([H])O[H])C([H])(C([H])([H])[H])C([H])([H])[H])C([H])(C([H])([H])[H])C([H])([H])[H])C([H])([H])O[H])C([H])([H])O[H])C([H])([H])O[H])C([H])([H])O[H]


 61 60  0  0  0  0  0  0  0  0999 V2000
    6.9239   51.1492  129.6352 C   0  0  0  0  0  0  0  0  0  0  0  0
    7.1465   52.8145  127.8297 C   0  0  0  0  0  0  0  0  0  0  0  0
    6.9068   53.6808  128.7528 O   0  0  0  0  0  0  0  0  0  0  0  0
    7.1525   51.4850  128.2411 N   0  0  0  0  0  0  0  0  0  0  0  0
    7.3053   50.7110  127.5776 H   0  0  0  0  0  0  0  0  0  0  0  0
    7.3720   53.3700  126.4972 C   0  0  0  0  0  0  0  0  0  0  0  0
    5.8871   54.0047  124.5365 C   0  0  0  0  0  0  0  0  0  0  0  0
    6.8284   53.7150  123.7201 O   0  0  0  0  0  0  0  0  0  0  0  0
    6.1060   53.8556  125.9170 N   0  0  0  0  0  0  0  0  0  0  0  0
    5.3538   54.0895  126.5863 H   0  0  0  0  0  0  0  0  0  0  0  0
    4.6124   54.4869  123.9751 C   0  0  0  0  0  0  0  0  0  0  0  0
    4.0519   56.6303  125.1292 C   0  0  0  0  0  0  0  0  0  0  0  0
    3.6345   55.9345  126.1081 O   0  0  0  0  0  0  0  0  0  0  0  0
    4.5692   55.9555  123.9889 N   0  0  0  0  0  0  0  0  0  0  0  0
    4.9106   56.4949  123.1774 H   0  0  0  0  0  0  0  0  0  0  0  0
    3.9882   58.1027  125.2037 C   0  0  0  0  0  0  0  0  0  0  0  0
    1.9322   59.1399  128.2982 C   0  0  0  0  0  0  0  0  0  0  0  0
    3.0764   58.7432  127.4231 C   0  0  0  0  0  0  0  0  0  0  0  0
    4.2346   58.6315  127.8947 O   0  0  0  0  0  0  0  0  0  0  0  0
    2.8688   58.4859  126.0437 N   0  0  0  0  0  0  0  0  0  0  0  0
    1.9068   58.5713  125.6166 H   0  0  0  0  0  0  0  0  0  0  0  0
    5.2731   58.6839  125.7862 C   0  0  0  0  0  0  0  0  0  0  0  0
    6.2915   58.4587  124.8638 O   0  0  0  0  0  0  0  0  0  0  0  0
    6.4982   59.3422  124.4346 H   0  0  0  0  0  0  0  0  0  0  0  0
    4.3991   53.9848  122.5558 C   0  0  0  0  0  0  0  0  0  0  0  0
    4.0412   55.1042  121.6055 C   0  0  0  0  0  0  0  0  0  0  0  0
    3.3504   52.8819  122.5346 C   0  0  0  0  0  0  0  0  0  0  0  0
    8.3324   54.5601  126.5619 C   0  0  0  0  0  0  0  0  0  0  0  0
    7.5926   55.8630  126.6576 C   0  0  0  0  0  0  0  0  0  0  0  0
    9.1823   54.6306  125.3032 C   0  0  0  0  0  0  0  0  0  0  0  0
    7.4300   49.7884  129.8819 C   0  0  0  0  0  0  0  0  0  0  0  0
    7.6169   49.3330  131.0552 O   0  0  0  0  0  0  0  0  0  0  0  0
    7.7243   48.9373  128.7948 N   0  0  0  0  0  0  0  0  0  0  0  0
    7.5892   49.2490  127.8257 H   0  0  0  0  0  0  0  0  0  0  0  0
    8.2299   47.6096  129.0449 C   0  0  0  0  0  0  0  0  0  0  0  0
    9.0669   47.6385  130.2629 C   0  0  0  0  0  0  0  0  0  0  0  0
   10.0497   48.4032  130.3411 O   0  0  0  0  0  0  0  0  0  0  0  0
    8.7033   46.7648  131.3247 N   0  0  0  0  0  0  0  0  0  0  0  0
    7.8884   46.1505  131.2296 H   0  0  0  0  0  0  0  0  0  0  0  0
    9.5200   46.7780  132.5258 C   0  0  0  0  0  0  0  0  0  0  0  0
   10.6131   45.8049  132.3753 C   0  0  0  0  0  0  0  0  0  0  0  0
   11.5022   45.7246  133.2518 O   0  0  0  0  0  0  0  0  0  0  0  0
   10.6680   44.9608  131.2498 N   0  0  0  0  0  0  0  0  0  0  0  0
    9.9153   45.0384  130.5290 H   0  0  0  0  0  0  0  0  0  0  0  0
   11.7457   43.9913  131.0744 C   0  0  0  0  0  0  0  0  0  0  0  0
   11.6862   43.0176  132.2192 C   0  0  0  0  0  0  0  0  0  0  0  0
   12.8317   42.8647  132.9827 O   0  0  0  0  0  0  0  0  0  0  0  0
   10.6745   42.3663  132.4950 O   0  0  0  0  0  0  0  0  0  0  0  0
   13.5730   42.2357  132.7275 H   0  0  0  0  0  0  0  0  0  0  0  0
   13.1123   44.6461  131.1057 C   0  0  0  0  0  0  0  0  0  0  0  0
   13.9395   44.0076  130.2024 O   0  0  0  0  0  0  0  0  0  0  0  0
   14.4684   44.6511  129.6497 H   0  0  0  0  0  0  0  0  0  0  0  0
    8.5772   46.3053  133.6474 C   0  0  0  0  0  0  0  0  0  0  0  0
    8.6014   44.9094  133.6437 O   0  0  0  0  0  0  0  0  0  0  0  0
    7.7097   44.5244  133.3815 H   0  0  0  0  0  0  0  0  0  0  0  0
    9.0455   47.1427  127.8363 C   0  0  0  0  0  0  0  0  0  0  0  0
   10.0598   46.3167  128.3710 O   0  0  0  0  0  0  0  0  0  0  0  0
   10.7677   46.9662  128.6842 H   0  0  0  0  0  0  0  0  0  0  0  0
    5.4326   51.2450  129.9588 C   0  0  0  0  0  0  0  0  0  0  0  0
    4.8061   50.0308  129.6728 O   0  0  0  0  0  0  0  0  0  0  0  0
    3.9327   50.0442  130.1739 H   0  0  0  0  0  0  0  0  0  0  0  0
 17 18  1  0  0  0
 18 19  2  0  0  0
 18 20  1  0  0  0
 20 16  1  0  0  0
 16 22  1  0  0  0
 22 23  1  0  0  0
 16 12  1  0  0  0
 12 13  2  0  0  0
 12 14  1  0  0  0
 14 11  1  0  0  0
 11 25  1  0  0  0
 25 26  1  0  0  0
 25 27  1  0  0  0
 11  7  1  0  0  0
  7  8  2  0  0  0
  7  9  1  0  0  0
  9  6  1  0  0  0
  6 28  1  0  0  0
 28 29  1  0  0  0
 28 30  1  0  0  0
  6  2  1  0  0  0
  2  3  2  0  0  0
  2  4  1  0  0  0
  4  1  1  0  0  0
  1 59  1  0  0  0
 59 60  1  0  0  0
  1 31  1  0  0  0
 31 32  2  0  0  0
 31 33  1  0  0  0
 33 35  1  0  0  0
 35 56  1  0  0  0
 56 57  1  0  0  0
 35 36  1  0  0  0
 36 37  2  0  0  0
 36 38  1  0  0  0
 38 40  1  0  0  0
 40 53  1  0  0  0
 53 54  1  0  0  0
 40 41  1  0  0  0
 41 42  2  0  0  0
 41 43  1  0  0  0
 43 45  1  0  0  0
 45 50  1  0  0  0
 50 51  1  0  0  0
 45 46  1  0  0  0
 46 47  1  0  0  0
 46 48  2  0  0  0
 20 21  1  0  0  0
 23 24  1  0  0  0
 14 15  1  0  0  0
  9 10  1  0  0  0
  4  5  1  0  0  0
 60 61  1  0  0  0
 33 34  1  0  0  0
 57 58  1  0  0  0
 38 39  1  0  0  0
 54 55  1  0  0  0
 43 44  1  0  0  0
 51 52  1  0  0  0
 47 49  1  0  0  0
M  END
> <minimizedAffinity>
-0.67702

> <CNNscore>
0.4347767830

> <CNNaffinity>
6.7556524277

> <CNN_VS>
2.9372007847

> <CNNaffinity_variance>
0.4178091884

$$$$
[H]OC(=O)[C@@]([H])(N([H])C(=O)[C@@]([H])(N([H])C(=O)[C@@]([H])(N([H])C(=O)[C@@]([H])(N([H])C(=O)[C@@]([H])(N([H])C(=O)[C@@]([H])(N([H])C(=O)[C@@]([H])(N([H])C(=O)C([H])([H])[H])C([H])([H])O[H])C([H])(C([H])([H])[H])C([H])([H])[H])C([H])(C([H])([H])[H])C([H])([H])[H])C([H])([H])O[H])C([H])([H])O[H])C([H])([H])O[H])C([H])([H])O[H]


 61 60  0  0  0  0  0  0  0  0999 V2000
    7.1791   51.5154  129.1143 C   0  0  0  0  0  0  0  0  0  0  0  0
    7.1509   53.2426  127.3540 C   0  0  0  0  0  0  0  0  0  0  0  0
    7.1097   54.0791  128.3329 O   0  0  0  0  0  0  0  0  0  0  0  0
    7.1755   51.8984  127.7136 N   0  0  0  0  0  0  0  0  0  0  0  0
    7.1799   51.1466  127.0083 H   0  0  0  0  0  0  0  0  0  0  0  0
    7.1637   53.8426  126.0217 C   0  0  0  0  0  0  0  0  0  0  0  0
    5.3995   55.0708  124.6685 C   0  0  0  0  0  0  0  0  0  0  0  0
    5.7582   54.4406  123.6146 O   0  0  0  0  0  0  0  0  0  0  0  0
    6.0637   54.8149  125.8806 N   0  0  0  0  0  0  0  0  0  0  0  0
    5.7846   55.3203  126.7380 H   0  0  0  0  0  0  0  0  0  0  0  0
    4.2982   56.0432  124.5483 C   0  0  0  0  0  0  0  0  0  0  0  0
    2.5937   55.3481  126.2370 C   0  0  0  0  0  0  0  0  0  0  0  0
    3.3498   55.8461  127.1297 O   0  0  0  0  0  0  0  0  0  0  0  0
    3.0154   55.4082  124.8798 N   0  0  0  0  0  0  0  0  0  0  0  0
    2.4238   55.0076  124.1345 H   0  0  0  0  0  0  0  0  0  0  0  0
    1.3135   54.7285  126.6307 C   0  0  0  0  0  0  0  0  0  0  0  0
    2.2270   50.9813  126.5886 C   0  0  0  0  0  0  0  0  0  0  0  0
    1.9662   52.3828  126.1417 C   0  0  0  0  0  0  0  0  0  0  0  0
    2.0993   52.7058  124.9358 O   0  0  0  0  0  0  0  0  0  0  0  0
    1.5626   53.3704  127.0766 N   0  0  0  0  0  0  0  0  0  0  0  0
    1.4419   53.1306  128.0980 H   0  0  0  0  0  0  0  0  0  0  0  0
    0.6431   55.5100  127.7566 C   0  0  0  0  0  0  0  0  0  0  0  0
   -0.1519   54.6179  128.4713 O   0  0  0  0  0  0  0  0  0  0  0  0
    0.3158   54.4419  129.3418 H   0  0  0  0  0  0  0  0  0  0  0  0
    4.5157   57.2506  125.4466 C   0  0  0  0  0  0  0  0  0  0  0  0
    3.4437   58.2991  125.2572 C   0  0  0  0  0  0  0  0  0  0  0  0
    5.9053   57.8316  125.2282 C   0  0  0  0  0  0  0  0  0  0  0  0
    8.4742   54.5952  125.7791 C   0  0  0  0  0  0  0  0  0  0  0  0
    8.3005   56.0768  125.9489 C   0  0  0  0  0  0  0  0  0  0  0  0
    8.9640   54.3720  124.3572 C   0  0  0  0  0  0  0  0  0  0  0  0
    7.5415   50.0914  129.2131 C   0  0  0  0  0  0  0  0  0  0  0  0
    7.2930   49.2588  128.2835 O   0  0  0  0  0  0  0  0  0  0  0  0
    8.1905   49.6072  130.3694 N   0  0  0  0  0  0  0  0  0  0  0  0
    8.4201   50.2335  131.1501 H   0  0  0  0  0  0  0  0  0  0  0  0
    8.5323   48.2089  130.4628 C   0  0  0  0  0  0  0  0  0  0  0  0
    9.4945   48.0250  131.5697 C   0  0  0  0  0  0  0  0  0  0  0  0
   10.5003   48.7570  131.6663 O   0  0  0  0  0  0  0  0  0  0  0  0
    9.2223   46.9882  132.5046 N   0  0  0  0  0  0  0  0  0  0  0  0
    8.3857   46.4059  132.3983 H   0  0  0  0  0  0  0  0  0  0  0  0
   10.1621   46.7919  133.5947 C   0  0  0  0  0  0  0  0  0  0  0  0
   11.1217   45.7418  133.2196 C   0  0  0  0  0  0  0  0  0  0  0  0
   12.2240   45.6652  133.8064 O   0  0  0  0  0  0  0  0  0  0  0  0
   10.8100   44.8195  132.2024 N   0  0  0  0  0  0  0  0  0  0  0  0
    9.8835   44.8954  131.7250 H   0  0  0  0  0  0  0  0  0  0  0  0
   11.7479   43.7723  131.8077 C   0  0  0  0  0  0  0  0  0  0  0  0
   12.1197   43.9995  130.3681 C   0  0  0  0  0  0  0  0  0  0  0  0
   11.1309   43.8023  129.4185 O   0  0  0  0  0  0  0  0  0  0  0  0
   13.2494   44.3481  130.0133 O   0  0  0  0  0  0  0  0  0  0  0  0
   10.9246   42.8982  129.0307 H   0  0  0  0  0  0  0  0  0  0  0  0
   11.1333   42.3902  131.9054 C   0  0  0  0  0  0  0  0  0  0  0  0
   10.3414   42.3273  133.0354 O   0  0  0  0  0  0  0  0  0  0  0  0
    9.4592   41.8917  132.8582 H   0  0  0  0  0  0  0  0  0  0  0  0
    9.3023   46.2906  134.7694 C   0  0  0  0  0  0  0  0  0  0  0  0
    9.9472   45.1734  135.3034 O   0  0  0  0  0  0  0  0  0  0  0  0
    9.4068   44.3353  135.1705 H   0  0  0  0  0  0  0  0  0  0  0  0
    9.1373   47.7460  129.1348 C   0  0  0  0  0  0  0  0  0  0  0  0
    9.9241   46.6180  129.4597 O   0  0  0  0  0  0  0  0  0  0  0  0
   10.7919   47.0108  129.7967 H   0  0  0  0  0  0  0  0  0  0  0  0
    5.8041   51.7738  129.7310 C   0  0  0  0  0  0  0  0  0  0  0  0
    5.3524   50.6245  130.3819 O   0  0  0  0  0  0  0  0  0  0  0  0
    4.6239   50.9278  131.0074 H   0  0  0  0  0  0  0  0  0  0  0  0
 17 18  1  0  0  0
 18 19  2  0  0  0
 18 20  1  0  0  0
 20 16  1  0  0  0
 16 22  1  0  0  0
 22 23  1  0  0  0
 16 12  1  0  0  0
 12 13  2  0  0  0
 12 14  1  0  0  0
 14 11  1  0  0  0
 11 25  1  0  0  0
 25 26  1  0  0  0
 25 27  1  0  0  0
 11  7  1  0  0  0
  7  8  2  0  0  0
  7  9  1  0  0  0
  9  6  1  0  0  0
  6 28  1  0  0  0
 28 29  1  0  0  0
 28 30  1  0  0  0
  6  2  1  0  0  0
  2  3  2  0  0  0
  2  4  1  0  0  0
  4  1  1  0  0  0
  1 59  1  0  0  0
 59 60  1  0  0  0
  1 31  1  0  0  0
 31 32  2  0  0  0
 31 33  1  0  0  0
 33 35  1  0  0  0
 35 56  1  0  0  0
 56 57  1  0  0  0
 35 36  1  0  0  0
 36 37  2  0  0  0
 36 38  1  0  0  0
 38 40  1  0  0  0
 40 53  1  0  0  0
 53 54  1  0  0  0
 40 41  1  0  0  0
 41 42  2  0  0  0
 41 43  1  0  0  0
 43 45  1  0  0  0
 45 50  1  0  0  0
 50 51  1  0  0  0
 45 46  1  0  0  0
 46 47  1  0  0  0
 46 48  2  0  0  0
 20 21  1  0  0  0
 23 24  1  0  0  0
 14 15  1  0  0  0
  9 10  1  0  0  0
  4  5  1  0  0  0
 60 61  1  0  0  0
 33 34  1  0  0  0
 57 58  1  0  0  0
 38 39  1  0  0  0
 54 55  1  0  0  0
 43 44  1  0  0  0
 51 52  1  0  0  0
 47 49  1  0  0  0
M  END
> <minimizedAffinity>
-2.65341

> <CNNscore>
0.4248898923

> <CNNaffinity>
6.5959310532

> <CNN_VS>
2.8025443554

> <CNNaffinity_variance>
0.2486226559

$$$$
[H]OC(=O)[C@@]([H])(N([H])C(=O)[C@@]([H])(N([H])C(=O)[C@@]([H])(N([H])C(=O)[C@@]([H])(N([H])C(=O)[C@@]([H])(N([H])C(=O)[C@@]([H])(N([H])C(=O)[C@@]([H])(N([H])C(=O)C([H])([H])[H])C([H])([H])O[H])C([H])(C([H])([H])[H])C([H])([H])[H])C([H])(C([H])([H])[H])C([H])([H])[H])C([H])([H])O[H])C([H])([H])O[H])C([H])([H])O[H])C([H])([H])O[H]


 61 60  0  0  0  0  0  0  0  0999 V2000
    6.5790   50.9971  128.6621 C   0  0  0  0  0  0  0  0  0  0  0  0
    7.5827   49.1496  129.9512 C   0  0  0  0  0  0  0  0  0  0  0  0
    7.0992   48.3926  129.0276 O   0  0  0  0  0  0  0  0  0  0  0  0
    7.3257   50.5098  129.8082 N   0  0  0  0  0  0  0  0  0  0  0  0
    7.6423   51.1996  130.5059 H   0  0  0  0  0  0  0  0  0  0  0  0
    8.3229   48.4551  131.0023 C   0  0  0  0  0  0  0  0  0  0  0  0
    8.8308   46.0236  130.4708 C   0  0  0  0  0  0  0  0  0  0  0  0
    7.7457   45.6636  131.0448 O   0  0  0  0  0  0  0  0  0  0  0  0
    9.1634   47.3887  130.4262 N   0  0  0  0  0  0  0  0  0  0  0  0
   10.0391   47.6911  129.9679 H   0  0  0  0  0  0  0  0  0  0  0  0
    9.6815   44.9724  129.8846 C   0  0  0  0  0  0  0  0  0  0  0  0
   11.4421   45.0986  131.6522 C   0  0  0  0  0  0  0  0  0  0  0  0
   11.5656   46.3320  131.3689 O   0  0  0  0  0  0  0  0  0  0  0  0
   10.4916   44.3278  130.9272 N   0  0  0  0  0  0  0  0  0  0  0  0
   10.3734   43.3229  131.1327 H   0  0  0  0  0  0  0  0  0  0  0  0
   12.2800   44.5086  132.7141 C   0  0  0  0  0  0  0  0  0  0  0  0
   10.0567   45.7985  135.5901 C   0  0  0  0  0  0  0  0  0  0  0  0
   10.4919   45.2429  134.2733 C   0  0  0  0  0  0  0  0  0  0  0  0
    9.6472   44.9399  133.3953 O   0  0  0  0  0  0  0  0  0  0  0  0
   11.8697   45.0503  133.9962 N   0  0  0  0  0  0  0  0  0  0  0  0
   12.6048   45.2951  134.7137 H   0  0  0  0  0  0  0  0  0  0  0  0
   12.1449   42.9892  132.7462 C   0  0  0  0  0  0  0  0  0  0  0  0
   11.0704   42.6808  133.5761 O   0  0  0  0  0  0  0  0  0  0  0  0
   10.3166   42.3870  132.9819 H   0  0  0  0  0  0  0  0  0  0  0  0
    8.8553   43.9217  129.1597 C   0  0  0  0  0  0  0  0  0  0  0  0
    8.5390   42.7383  130.0451 C   0  0  0  0  0  0  0  0  0  0  0  0
    9.5544   43.4863  127.8798 C   0  0  0  0  0  0  0  0  0  0  0  0
    9.2520   49.4221  131.7401 C   0  0  0  0  0  0  0  0  0  0  0  0
   10.5093   49.6830  130.9621 C   0  0  0  0  0  0  0  0  0  0  0  0
    9.6781   48.8388  133.0779 C   0  0  0  0  0  0  0  0  0  0  0  0
    6.9896   52.3843  128.3866 C   0  0  0  0  0  0  0  0  0  0  0  0
    7.1582   53.2417  129.3116 O   0  0  0  0  0  0  0  0  0  0  0  0
    7.2128   52.8032  127.0572 N   0  0  0  0  0  0  0  0  0  0  0  0
    7.0964   52.1541  126.2701 H   0  0  0  0  0  0  0  0  0  0  0  0
    7.6044   54.1667  126.7951 C   0  0  0  0  0  0  0  0  0  0  0  0
    6.4206   54.9242  126.3369 C   0  0  0  0  0  0  0  0  0  0  0  0
    5.7205   55.5622  127.1490 O   0  0  0  0  0  0  0  0  0  0  0  0
    6.1229   54.8901  124.9465 N   0  0  0  0  0  0  0  0  0  0  0  0
    6.7198   54.3582  124.3052 H   0  0  0  0  0  0  0  0  0  0  0  0
    4.9592   55.6252  124.4823 C   0  0  0  0  0  0  0  0  0  0  0  0
    4.9935   56.9848  125.0433 C   0  0  0  0  0  0  0  0  0  0  0  0
    5.9771   57.7260  124.8233 O   0  0  0  0  0  0  0  0  0  0  0  0
    3.9261   57.4607  125.8285 N   0  0  0  0  0  0  0  0  0  0  0  0
    3.1106   56.8299  125.9995 H   0  0  0  0  0  0  0  0  0  0  0  0
    3.9393   58.8037  126.4016 C   0  0  0  0  0  0  0  0  0  0  0  0
    3.7834   58.6749  127.8919 C   0  0  0  0  0  0  0  0  0  0  0  0
    4.7735   57.9901  128.5769 O   0  0  0  0  0  0  0  0  0  0  0  0
    2.8258   59.1484  128.5104 O   0  0  0  0  0  0  0  0  0  0  0  0
    4.7715   56.9899  128.6756 H   0  0  0  0  0  0  0  0  0  0  0  0
    2.7884   59.6505  125.8960 C   0  0  0  0  0  0  0  0  0  0  0  0
    2.8416   59.7072  124.5169 O   0  0  0  0  0  0  0  0  0  0  0  0
    1.9458   59.5687  124.0953 H   0  0  0  0  0  0  0  0  0  0  0  0
    3.7552   54.8684  125.0722 C   0  0  0  0  0  0  0  0  0  0  0  0
    3.4094   53.8707  124.1589 O   0  0  0  0  0  0  0  0  0  0  0  0
    2.5026   54.0360  123.7557 H   0  0  0  0  0  0  0  0  0  0  0  0
    8.7043   54.1816  125.7303 C   0  0  0  0  0  0  0  0  0  0  0  0
    9.0286   55.5454  125.5522 O   0  0  0  0  0  0  0  0  0  0  0  0
    8.3179   55.8880  124.9210 H   0  0  0  0  0  0  0  0  0  0  0  0
    5.0781   50.9166  128.9427 C   0  0  0  0  0  0  0  0  0  0  0  0
    4.6725   49.5813  128.9755 O   0  0  0  0  0  0  0  0  0  0  0  0
    3.7854   49.5722  129.4519 H   0  0  0  0  0  0  0  0  0  0  0  0
 17 18  1  0  0  0
 18 19  2  0  0  0
 18 20  1  0  0  0
 20 16  1  0  0  0
 16 22  1  0  0  0
 22 23  1  0  0  0
 16 12  1  0  0  0
 12 13  2  0  0  0
 12 14  1  0  0  0
 14 11  1  0  0  0
 11 25  1  0  0  0
 25 26  1  0  0  0
 25 27  1  0  0  0
 11  7  1  0  0  0
  7  8  2  0  0  0
  7  9  1  0  0  0
  9  6  1  0  0  0
  6 28  1  0  0  0
 28 29  1  0  0  0
 28 30  1  0  0  0
  6  2  1  0  0  0
  2  3  2  0  0  0
  2  4  1  0  0  0
  4  1  1  0  0  0
  1 59  1  0  0  0
 59 60  1  0  0  0
  1 31  1  0  0  0
 31 32  2  0  0  0
 31 33  1  0  0  0
 33 35  1  0  0  0
 35 56  1  0  0  0
 56 57  1  0  0  0
 35 36  1  0  0  0
 36 37  2  0  0  0
 36 38  1  0  0  0
 38 40  1  0  0  0
 40 53  1  0  0  0
 53 54  1  0  0  0
 40 41  1  0  0  0
 41 42  2  0  0  0
 41 43  1  0  0  0
 43 45  1  0  0  0
 45 50  1  0  0  0
 50 51  1  0  0  0
 45 46  1  0  0  0
 46 47  1  0  0  0
 46 48  2  0  0  0
 20 21  1  0  0  0
 23 24  1  0  0  0
 14 15  1  0  0  0
  9 10  1  0  0  0
  4  5  1  0  0  0
 60 61  1  0  0  0
 33 34  1  0  0  0
 57 58  1  0  0  0
 38 39  1  0  0  0
 54 55  1  0  0  0
 43 44  1  0  0  0
 51 52  1  0  0  0
 47 49  1  0  0  0
M  END
> <minimizedAffinity>
-3.95942

> <CNNscore>
0.4120816588

> <CNNaffinity>
6.7817716599

> <CNN_VS>
2.7946436405

> <CNNaffinity_variance>
0.2930249274

$$$$
[H]OC(=O)[C@@]([H])(N([H])C(=O)[C@@]([H])(N([H])C(=O)[C@@]([H])(N([H])C(=O)[C@@]([H])(N([H])C(=O)[C@@]([H])(N([H])C(=O)[C@@]([H])(N([H])C(=O)[C@@]([H])(N([H])C(=O)C([H])([H])[H])C([H])([H])O[H])C([H])(C([H])([H])[H])C([H])([H])[H])C([H])(C([H])([H])[H])C([H])([H])[H])C([H])([H])O[H])C([H])([H])O[H])C([H])([H])O[H])C([H])([H])O[H]


 61 60  0  0  0  0  0  0  0  0999 V2000
    6.9046   50.7921  129.6745 C   0  0  0  0  0  0  0  0  0  0  0  0
    7.4785   52.1793  127.7178 C   0  0  0  0  0  0  0  0  0  0  0  0
    7.4211   51.0736  127.0589 O   0  0  0  0  0  0  0  0  0  0  0  0
    7.2291   52.0780  129.0832 N   0  0  0  0  0  0  0  0  0  0  0  0
    7.2780   52.8971  129.7073 H   0  0  0  0  0  0  0  0  0  0  0  0
    7.7985   53.3627  126.9226 C   0  0  0  0  0  0  0  0  0  0  0  0
    7.4656   53.9500  124.4739 C   0  0  0  0  0  0  0  0  0  0  0  0
    8.6191   54.5021  124.4416 O   0  0  0  0  0  0  0  0  0  0  0  0
    7.0125   53.3767  125.6747 N   0  0  0  0  0  0  0  0  0  0  0  0
    6.0809   52.9305  125.7135 H   0  0  0  0  0  0  0  0  0  0  0  0
    6.6672   53.9496  123.2348 C   0  0  0  0  0  0  0  0  0  0  0  0
    4.9118   55.4101  124.2474 C   0  0  0  0  0  0  0  0  0  0  0  0
    5.8455   56.1927  124.6113 O   0  0  0  0  0  0  0  0  0  0  0  0
    5.2561   54.2286  123.5342 N   0  0  0  0  0  0  0  0  0  0  0  0
    4.5190   53.5725  123.2305 H   0  0  0  0  0  0  0  0  0  0  0  0
    3.5122   55.7469  124.5722 C   0  0  0  0  0  0  0  0  0  0  0  0
    2.0076   52.7228  126.4347 C   0  0  0  0  0  0  0  0  0  0  0  0
    2.4816   53.6218  125.3396 C   0  0  0  0  0  0  0  0  0  0  0  0
    2.3795   53.2752  124.1372 O   0  0  0  0  0  0  0  0  0  0  0  0
    3.0544   54.8832  125.6445 N   0  0  0  0  0  0  0  0  0  0  0  0
    3.1544   55.2037  126.6457 H   0  0  0  0  0  0  0  0  0  0  0  0
    3.3802   57.2024  125.0108 C   0  0  0  0  0  0  0  0  0  0  0  0
    2.5962   57.8565  124.0643 O   0  0  0  0  0  0  0  0  0  0  0  0
    1.6982   58.0117  124.4851 H   0  0  0  0  0  0  0  0  0  0  0  0
    7.1862   54.9689  122.2330 C   0  0  0  0  0  0  0  0  0  0  0  0
    6.7271   54.6655  120.8253 C   0  0  0  0  0  0  0  0  0  0  0  0
    8.7028   55.0678  122.3132 C   0  0  0  0  0  0  0  0  0  0  0  0
    7.4581   54.6410  127.6927 C   0  0  0  0  0  0  0  0  0  0  0  0
    6.0477   55.0845  127.4319 C   0  0  0  0  0  0  0  0  0  0  0  0
    8.3634   55.7833  127.2600 C   0  0  0  0  0  0  0  0  0  0  0  0
    8.0116   50.3857  130.5568 C   0  0  0  0  0  0  0  0  0  0  0  0
    8.6085   51.2069  131.3238 O   0  0  0  0  0  0  0  0  0  0  0  0
    8.4441   49.0421  130.5728 N   0  0  0  0  0  0  0  0  0  0  0  0
    7.9972   48.3341  129.9783 H   0  0  0  0  0  0  0  0  0  0  0  0
    9.5362   48.6545  131.4319 C   0  0  0  0  0  0  0  0  0  0  0  0
    9.3656   47.2360  131.8113 C   0  0  0  0  0  0  0  0  0  0  0  0
    8.4223   46.5631  131.3486 O   0  0  0  0  0  0  0  0  0  0  0  0
   10.3142   46.6846  132.7163 N   0  0  0  0  0  0  0  0  0  0  0  0
   11.0792   47.2639  133.0763 H   0  0  0  0  0  0  0  0  0  0  0  0
   10.1560   45.2933  133.1027 C   0  0  0  0  0  0  0  0  0  0  0  0
   10.6757   44.4333  132.0282 C   0  0  0  0  0  0  0  0  0  0  0  0
   11.7370   43.7933  132.1993 O   0  0  0  0  0  0  0  0  0  0  0  0
    9.9874   44.3241  130.8047 N   0  0  0  0  0  0  0  0  0  0  0  0
    9.1006   44.8626  130.6797 H   0  0  0  0  0  0  0  0  0  0  0  0
   10.4859   43.4822  129.7208 C   0  0  0  0  0  0  0  0  0  0  0  0
   11.3814   44.3231  128.8530 C   0  0  0  0  0  0  0  0  0  0  0  0
   12.6759   44.5373  129.2964 O   0  0  0  0  0  0  0  0  0  0  0  0
   11.0102   44.8163  127.7840 O   0  0  0  0  0  0  0  0  0  0  0  0
   12.9142   45.2738  129.9375 H   0  0  0  0  0  0  0  0  0  0  0  0
    9.3656   42.9584  128.8445 C   0  0  0  0  0  0  0  0  0  0  0  0
    8.3497   43.8934  128.8039 O   0  0  0  0  0  0  0  0  0  0  0  0
    8.0010   44.0368  127.8779 H   0  0  0  0  0  0  0  0  0  0  0  0
    8.6346   45.0882  133.2191 C   0  0  0  0  0  0  0  0  0  0  0  0
    8.3912   43.7219  133.0672 O   0  0  0  0  0  0  0  0  0  0  0  0
    7.8739   43.5294  132.2261 H   0  0  0  0  0  0  0  0  0  0  0  0
    9.5468   49.5511  132.6728 C   0  0  0  0  0  0  0  0  0  0  0  0
    8.7924   48.8514  133.6415 O   0  0  0  0  0  0  0  0  0  0  0  0
    7.8327   49.0666  133.4100 H   0  0  0  0  0  0  0  0  0  0  0  0
    6.6719   49.7546  128.5758 C   0  0  0  0  0  0  0  0  0  0  0  0
    5.8466   48.7349  129.0532 O   0  0  0  0  0  0  0  0  0  0  0  0
    5.4856   48.2657  128.2386 H   0  0  0  0  0  0  0  0  0  0  0  0
 17 18  1  0  0  0
 18 19  2  0  0  0
 18 20  1  0  0  0
 20 16  1  0  0  0
 16 22  1  0  0  0
 22 23  1  0  0  0
 16 12  1  0  0  0
 12 13  2  0  0  0
 12 14  1  0  0  0
 14 11  1  0  0  0
 11 25  1  0  0  0
 25 26  1  0  0  0
 25 27  1  0  0  0
 11  7  1  0  0  0
  7  8  2  0  0  0
  7  9  1  0  0  0
  9  6  1  0  0  0
  6 28  1  0  0  0
 28 29  1  0  0  0
 28 30  1  0  0  0
  6  2  1  0  0  0
  2  3  2  0  0  0
  2  4  1  0  0  0
  4  1  1  0  0  0
  1 59  1  0  0  0
 59 60  1  0  0  0
  1 31  1  0  0  0
 31 32  2  0  0  0
 31 33  1  0  0  0
 33 35  1  0  0  0
 35 56  1  0  0  0
 56 57  1  0  0  0
 35 36  1  0  0  0
 36 37  2  0  0  0
 36 38  1  0  0  0
 38 40  1  0  0  0
 40 53  1  0  0  0
 53 54  1  0  0  0
 40 41  1  0  0  0
 41 42  2  0  0  0
 41 43  1  0  0  0
 43 45  1  0  0  0
 45 50  1  0  0  0
 50 51  1  0  0  0
 45 46  1  0  0  0
 46 47  1  0  0  0
 46 48  2  0  0  0
 20 21  1  0  0  0
 23 24  1  0  0  0
 14 15  1  0  0  0
  9 10  1  0  0  0
  4  5  1  0  0  0
 60 61  1  0  0  0
 33 34  1  0  0  0
 57 58  1  0  0  0
 38 39  1  0  0  0
 54 55  1  0  0  0
 43 44  1  0  0  0
 51 52  1  0  0  0
 47 49  1  0  0  0
M  END
> <minimizedAffinity>
1.51840

> <CNNscore>
0.4110372663

> <CNNaffinity>
6.6284241676

> <CNN_VS>
2.7245292664

> <CNNaffinity_variance>
0.3191916943

$$$$
[H]c1c([H])c(Oc2c([H])c(Cl)c(Cl)c([H])c2C(=O)N([H])c2c([H])c([H])n([H])c(=O)c2[H])c(OC([H])([H])[H])c([H])c1F


 30 32  0  0  0  0  0  0  0  0999 V2000
    9.9907   43.7012  132.7485 C   0  0  0  0  0  0  0  0  0  0  0  0
   10.7111   43.1862  133.8300 C   0  0  0  0  0  0  0  0  0  0  0  0
   10.7356   43.8936  134.9990 C   0  0  0  0  0  0  0  0  0  0  0  0
   11.6149   43.3206  136.4079 Cl  0  0  0  0  0  0  0  0  0  0  0  0
   10.0620   45.0903  135.1008 C   0  0  0  0  0  0  0  0  0  0  0  0
   10.0914   46.0159  136.5891 Cl  0  0  0  0  0  0  0  0  0  0  0  0
    9.3513   45.5816  134.0199 C   0  0  0  0  0  0  0  0  0  0  0  0
    9.3039   44.8737  132.8070 C   0  0  0  0  0  0  0  0  0  0  0  0
    8.2927   45.3035  131.7956 C   0  0  0  0  0  0  0  0  0  0  0  0
    7.5286   44.3431  131.4068 O   0  0  0  0  0  0  0  0  0  0  0  0
    8.2179   46.5636  131.3784 N   0  0  0  0  0  0  0  0  0  0  0  0
    7.2174   46.2550  130.5063 H   0  0  0  0  0  0  0  0  0  0  0  0
    8.1402   47.8743  130.9445 C   0  0  0  0  0  0  0  0  0  0  0  0
    9.1424   48.8064  131.3297 C   0  0  0  0  0  0  0  0  0  0  0  0
    9.0925   50.1073  130.9553 C   0  0  0  0  0  0  0  0  0  0  0  0
    8.0831   50.5399  130.2085 N   0  0  0  0  0  0  0  0  0  0  0  0
    7.1033   49.7067  129.8121 C   0  0  0  0  0  0  0  0  0  0  0  0
    6.1771   50.1674  129.1117 O   0  0  0  0  0  0  0  0  0  0  0  0
    7.1217   48.3827  130.1705 C   0  0  0  0  0  0  0  0  0  0  0  0
    8.0553   51.5676  129.9172 H   0  0  0  0  0  0  0  0  0  0  0  0
   10.0279   42.9319  131.5962 O   0  0  0  0  0  0  0  0  0  0  0  0
   11.5056   44.0915  130.0108 C   0  0  0  0  0  0  0  0  0  0  0  0
   11.6781   44.5402  128.6930 C   0  0  0  0  0  0  0  0  0  0  0  0
   10.7299   44.3517  127.7107 C   0  0  0  0  0  0  0  0  0  0  0  0
   10.8792   44.7693  126.4424 F   0  0  0  0  0  0  0  0  0  0  0  0
    9.5840   43.6893  128.0919 C   0  0  0  0  0  0  0  0  0  0  0  0
    9.3823   43.2389  129.3699 C   0  0  0  0  0  0  0  0  0  0  0  0
   10.3727   43.4484  130.3555 C   0  0  0  0  0  0  0  0  0  0  0  0
   12.5934   45.4503  131.6926 C   0  0  0  0  0  0  0  0  0  0  0  0
   12.5056   44.3246  130.8831 O   0  0  0  0  0  0  0  0  0  0  0  0
 29 30  1  0  0  0
 30 22  1  0  0  0
 22 23  2  0  0  0
 23 24  1  0  0  0
 24 25  1  0  0  0
 24 26  2  0  0  0
 26 27  1  0  0  0
 27 28  2  0  0  0
 28 21  1  0  0  0
 21  1  1  0  0  0
  1  2  2  0  0  0
  2  3  1  0  0  0
  3  4  1  0  0  0
  3  5  2  0  0  0
  5  6  1  0  0  0
  5  7  1  0  0  0
  7  8  2  0  0  0
  8  9  1  0  0  0
  9 10  2  0  0  0
  9 11  1  0  0  0
 11 13  1  0  0  0
 13 14  1  0  0  0
 14 15  2  0  0  0
 15 16  1  0  0  0
 16 17  1  0  0  0
 17 18  2  0  0  0
 17 19  1  0  0  0
 28 22  1  0  0  0
  8  1  1  0  0  0
 19 13  2  0  0  0
 11 12  1  0  0  0
 16 20  1  0  0  0
M  END
> <minimizedAffinity>
-4.22693

> <CNNscore>
0.5018316507

> <CNNaffinity>
7.8432183266

> <CNN_VS>
3.9359753132

> <CNNaffinity_variance>
0.6254653931

$$$$
[H]c1c([H])c(Oc2c([H])c(Cl)c(Cl)c([H])c2C(=O)N([H])c2c([H])c([H])n([H])c(=O)c2[H])c(OC([H])([H])[H])c([H])c1F


 30 32  0  0  0  0  0  0  0  0999 V2000
   10.1324   45.1508  131.7872 C   0  0  0  0  0  0  0  0  0  0  0  0
   10.9406   44.7171  132.8419 C   0  0  0  0  0  0  0  0  0  0  0  0
   10.5364   43.6393  133.5786 C   0  0  0  0  0  0  0  0  0  0  0  0
   11.4904   43.0268  134.9207 Cl  0  0  0  0  0  0  0  0  0  0  0  0
    9.3539   42.9994  133.2817 C   0  0  0  0  0  0  0  0  0  0  0  0
    8.8149   41.6220  134.2226 Cl  0  0  0  0  0  0  0  0  0  0  0  0
    8.5694   43.4416  132.2309 C   0  0  0  0  0  0  0  0  0  0  0  0
    8.9620   44.5439  131.4530 C   0  0  0  0  0  0  0  0  0  0  0  0
    8.2323   44.7797  130.1716 C   0  0  0  0  0  0  0  0  0  0  0  0
    8.3538   43.8081  129.3358 O   0  0  0  0  0  0  0  0  0  0  0  0
    7.5304   45.8897  129.9646 N   0  0  0  0  0  0  0  0  0  0  0  0
    7.2167   45.4999  128.6971 H   0  0  0  0  0  0  0  0  0  0  0  0
    6.8003   47.0443  129.7494 C   0  0  0  0  0  0  0  0  0  0  0  0
    5.5777   46.9822  129.0263 C   0  0  0  0  0  0  0  0  0  0  0  0
    4.8438   48.0902  128.7639 C   0  0  0  0  0  0  0  0  0  0  0  0
    5.2669   49.2762  129.1860 N   0  0  0  0  0  0  0  0  0  0  0  0
    6.4164   49.4005  129.8750 C   0  0  0  0  0  0  0  0  0  0  0  0
    6.7673   50.5403  130.2468 O   0  0  0  0  0  0  0  0  0  0  0  0
    7.1845   48.3004  130.1608 C   0  0  0  0  0  0  0  0  0  0  0  0
    4.6787   50.1430  128.9753 H   0  0  0  0  0  0  0  0  0  0  0  0
   10.6049   46.2576  131.0997 O   0  0  0  0  0  0  0  0  0  0  0  0
   10.1057   48.6344  130.7210 C   0  0  0  0  0  0  0  0  0  0  0  0
    9.8567   49.8816  131.3129 C   0  0  0  0  0  0  0  0  0  0  0  0
    9.8422   50.0698  132.6782 C   0  0  0  0  0  0  0  0  0  0  0  0
    9.6007   51.2549  133.2633 F   0  0  0  0  0  0  0  0  0  0  0  0
   10.0883   48.9542  133.4476 C   0  0  0  0  0  0  0  0  0  0  0  0
   10.3363   47.7218  132.9029 C   0  0  0  0  0  0  0  0  0  0  0  0
   10.3456   47.5607  131.4992 C   0  0  0  0  0  0  0  0  0  0  0  0
   10.1375   47.3875  128.6469 C   0  0  0  0  0  0  0  0  0  0  0  0
   10.0850   48.5692  129.3755 O   0  0  0  0  0  0  0  0  0  0  0  0
 29 30  1  0  0  0
 30 22  1  0  0  0
 22 23  2  0  0  0
 23 24  1  0  0  0
 24 25  1  0  0  0
 24 26  2  0  0  0
 26 27  1  0  0  0
 27 28  2  0  0  0
 28 21  1  0  0  0
 21  1  1  0  0  0
  1  2  2  0  0  0
  2  3  1  0  0  0
  3  4  1  0  0  0
  3  5  2  0  0  0
  5  6  1  0  0  0
  5  7  1  0  0  0
  7  8  2  0  0  0
  8  9  1  0  0  0
  9 10  2  0  0  0
  9 11  1  0  0  0
 11 13  1  0  0  0
 13 14  1  0  0  0
 14 15  2  0  0  0
 15 16  1  0  0  0
 16 17  1  0  0  0
 17 18  2  0  0  0
 17 19  1  0  0  0
 28 22  1  0  0  0
  8  1  1  0  0  0
 19 13  2  0  0  0
 11 12  1  0  0  0
 16 20  1  0  0  0
M  END
> <minimizedAffinity>
-3.13026

> <CNNscore>
0.4593812227

> <CNNaffinity>
7.5475363731

> <CNN_VS>
3.4671964645

> <CNNaffinity_variance>
0.3823681772

$$$$
[H]c1c([H])c(Oc2c([H])c(Cl)c(Cl)c([H])c2C(=O)N([H])c2c([H])c([H])n([H])c(=O)c2[H])c(OC([H])([H])[H])c([H])c1F


 30 32  0  0  0  0  0  0  0  0999 V2000
   10.7960   44.9342  131.2451 C   0  0  0  0  0  0  0  0  0  0  0  0
   12.1280   44.9325  130.8215 C   0  0  0  0  0  0  0  0  0  0  0  0
   12.4206   44.4489  129.5773 C   0  0  0  0  0  0  0  0  0  0  0  0
   14.0665   44.4099  128.9642 Cl  0  0  0  0  0  0  0  0  0  0  0  0
   11.4168   43.9733  128.7634 C   0  0  0  0  0  0  0  0  0  0  0  0
   11.7752   43.3397  127.1688 Cl  0  0  0  0  0  0  0  0  0  0  0  0
   10.1036   43.9870  129.1996 C   0  0  0  0  0  0  0  0  0  0  0  0
    9.7722   44.4829  130.4718 C   0  0  0  0  0  0  0  0  0  0  0  0
    8.3294   44.7408  130.7582 C   0  0  0  0  0  0  0  0  0  0  0  0
    7.7577   43.7703  131.3816 O   0  0  0  0  0  0  0  0  0  0  0  0
    7.7410   45.8775  130.3988 N   0  0  0  0  0  0  0  0  0  0  0  0
    6.5375   45.4480  130.8721 H   0  0  0  0  0  0  0  0  0  0  0  0
    7.1290   47.0599  130.0249 C   0  0  0  0  0  0  0  0  0  0  0  0
    5.9142   47.0237  129.2869 C   0  0  0  0  0  0  0  0  0  0  0  0
    5.2944   48.1544  128.8719 C   0  0  0  0  0  0  0  0  0  0  0  0
    5.8260   49.3386  129.1531 N   0  0  0  0  0  0  0  0  0  0  0  0
    6.9743   49.4389  129.8478 C   0  0  0  0  0  0  0  0  0  0  0  0
    7.4302   50.5779  130.0831 O   0  0  0  0  0  0  0  0  0  0  0  0
    7.6287   48.3156  130.2858 C   0  0  0  0  0  0  0  0  0  0  0  0
    5.3271   50.2238  128.8227 H   0  0  0  0  0  0  0  0  0  0  0  0
   10.5852   45.4265  132.5235 O   0  0  0  0  0  0  0  0  0  0  0  0
    9.4929   47.2347  133.7801 C   0  0  0  0  0  0  0  0  0  0  0  0
    9.2667   48.6158  133.8757 C   0  0  0  0  0  0  0  0  0  0  0  0
    9.7911   49.5214  132.9788 C   0  0  0  0  0  0  0  0  0  0  0  0
    9.5901   50.8475  133.0569 F   0  0  0  0  0  0  0  0  0  0  0  0
   10.5621   48.9958  131.9657 C   0  0  0  0  0  0  0  0  0  0  0  0
   10.8022   47.6526  131.8418 C   0  0  0  0  0  0  0  0  0  0  0  0
   10.2496   46.7487  132.7766 C   0  0  0  0  0  0  0  0  0  0  0  0
    7.9942   45.4597  134.4592 C   0  0  0  0  0  0  0  0  0  0  0  0
    8.9363   46.4467  134.7206 O   0  0  0  0  0  0  0  0  0  0  0  0
 29 30  1  0  0  0
 30 22  1  0  0  0
 22 23  2  0  0  0
 23 24  1  0  0  0
 24 25  1  0  0  0
 24 26  2  0  0  0
 26 27  1  0  0  0
 27 28  2  0  0  0
 28 21  1  0  0  0
 21  1  1  0  0  0
  1  2  2  0  0  0
  2  3  1  0  0  0
  3  4  1  0  0  0
  3  5  2  0  0  0
  5  6  1  0  0  0
  5  7  1  0  0  0
  7  8  2  0  0  0
  8  9  1  0  0  0
  9 10  2  0  0  0
  9 11  1  0  0  0
 11 13  1  0  0  0
 13 14  1  0  0  0
 14 15  2  0  0  0
 15 16  1  0  0  0
 16 17  1  0  0  0
 17 18  2  0  0  0
 17 19  1  0  0  0
 28 22  1  0  0  0
  8  1  1  0  0  0
 19 13  2  0  0  0
 11 12  1  0  0  0
 16 20  1  0  0  0
M  END
> <minimizedAffinity>
-4.62859

> <CNNscore>
0.4551549852

> <CNNaffinity>
7.5763764381

> <CNN_VS>
3.4484255314

> <CNNaffinity_variance>
0.2411446273

$$$$
[H]c1c([H])c(Oc2c([H])c(Cl)c(Cl)c([H])c2C(=O)N([H])c2c([H])c([H])n([H])c(=O)c2[H])c(OC([H])([H])[H])c([H])c1F


 30 32  0  0  0  0  0  0  0  0999 V2000
   10.1408   43.7335  132.7972 C   0  0  0  0  0  0  0  0  0  0  0  0
   10.9168   43.2718  133.8642 C   0  0  0  0  0  0  0  0  0  0  0  0
   10.8662   43.9451  135.0524 C   0  0  0  0  0  0  0  0  0  0  0  0
   11.8074   43.4344  136.4451 Cl  0  0  0  0  0  0  0  0  0  0  0  0
   10.0646   45.0566  135.1871 C   0  0  0  0  0  0  0  0  0  0  0  0
    9.9955   45.9385  136.7005 Cl  0  0  0  0  0  0  0  0  0  0  0  0
    9.3008   45.4958  134.1199 C   0  0  0  0  0  0  0  0  0  0  0  0
    9.3286   44.8207  132.8880 C   0  0  0  0  0  0  0  0  0  0  0  0
    8.2733   45.1636  131.8885 C   0  0  0  0  0  0  0  0  0  0  0  0
    7.4625   44.1907  131.6574 O   0  0  0  0  0  0  0  0  0  0  0  0
    8.2089   46.3684  131.3302 N   0  0  0  0  0  0  0  0  0  0  0  0
    7.1522   45.9942  130.5555 H   0  0  0  0  0  0  0  0  0  0  0  0
    8.1420   47.6217  130.7494 C   0  0  0  0  0  0  0  0  0  0  0  0
    7.5960   47.7671  129.4447 C   0  0  0  0  0  0  0  0  0  0  0  0
    7.5378   48.9691  128.8226 C   0  0  0  0  0  0  0  0  0  0  0  0
    8.0022   50.0517  129.4358 N   0  0  0  0  0  0  0  0  0  0  0  0
    8.5314   49.9791  130.6712 C   0  0  0  0  0  0  0  0  0  0  0  0
    8.9544   51.0287  131.2003 O   0  0  0  0  0  0  0  0  0  0  0  0
    8.6051   48.7794  131.3324 C   0  0  0  0  0  0  0  0  0  0  0  0
    7.9490   50.9949  128.9364 H   0  0  0  0  0  0  0  0  0  0  0  0
   10.2597   43.0051  131.6241 O   0  0  0  0  0  0  0  0  0  0  0  0
    9.4832   43.4165  129.3285 C   0  0  0  0  0  0  0  0  0  0  0  0
    9.7019   44.1151  128.1319 C   0  0  0  0  0  0  0  0  0  0  0  0
   10.7470   44.9978  127.9638 C   0  0  0  0  0  0  0  0  0  0  0  0
   10.9695   45.6796  126.8277 F   0  0  0  0  0  0  0  0  0  0  0  0
   11.5814   45.1644  129.0469 C   0  0  0  0  0  0  0  0  0  0  0  0
   11.3978   44.4976  130.2296 C   0  0  0  0  0  0  0  0  0  0  0  0
   10.3177   43.5978  130.3710 C   0  0  0  0  0  0  0  0  0  0  0  0
    8.2095   41.6481  130.3812 C   0  0  0  0  0  0  0  0  0  0  0  0
    8.4229   42.5868  129.3795 O   0  0  0  0  0  0  0  0  0  0  0  0
 29 30  1  0  0  0
 30 22  1  0  0  0
 22 23  2  0  0  0
 23 24  1  0  0  0
 24 25  1  0  0  0
 24 26  2  0  0  0
 26 27  1  0  0  0
 27 28  2  0  0  0
 28 21  1  0  0  0
 21  1  1  0  0  0
  1  2  2  0  0  0
  2  3  1  0  0  0
  3  4  1  0  0  0
  3  5  2  0  0  0
  5  6  1  0  0  0
  5  7  1  0  0  0
  7  8  2  0  0  0
  8  9  1  0  0  0
  9 10  2  0  0  0
  9 11  1  0  0  0
 11 13  1  0  0  0
 13 14  1  0  0  0
 14 15  2  0  0  0
 15 16  1  0  0  0
 16 17  1  0  0  0
 17 18  2  0  0  0
 17 19  1  0  0  0
 28 22  1  0  0  0
  8  1  1  0  0  0
 19 13  2  0  0  0
 11 12  1  0  0  0
 16 20  1  0  0  0
M  END
> <minimizedAffinity>
-2.46902

> <CNNscore>
0.4351417124

> <CNNaffinity>
7.7062616348

> <CNN_VS>
3.3533158302

> <CNNaffinity_variance>
0.6160284281

$$$$
[H]c1c([H])c(Oc2c([H])c(Cl)c(Cl)c([H])c2C(=O)N([H])c2c([H])c([H])n([H])c(=O)c2[H])c(OC([H])([H])[H])c([H])c1F


 30 32  0  0  0  0  0  0  0  0999 V2000
   10.9333   45.3557  130.8336 C   0  0  0  0  0  0  0  0  0  0  0  0
   12.2802   45.2113  130.4890 C   0  0  0  0  0  0  0  0  0  0  0  0
   12.5936   44.5984  129.3085 C   0  0  0  0  0  0  0  0  0  0  0  0
   14.2594   44.3753  128.7965 Cl  0  0  0  0  0  0  0  0  0  0  0  0
   11.5960   44.1338  128.4809 C   0  0  0  0  0  0  0  0  0  0  0  0
   11.9800   43.3358  126.9681 Cl  0  0  0  0  0  0  0  0  0  0  0  0
   10.2681   44.2898  128.8381 C   0  0  0  0  0  0  0  0  0  0  0  0
    9.9156   44.9205  130.0432 C   0  0  0  0  0  0  0  0  0  0  0  0
    8.4870   45.3160  130.2236 C   0  0  0  0  0  0  0  0  0  0  0  0
    7.7114   44.3143  130.4527 O   0  0  0  0  0  0  0  0  0  0  0  0
    8.1034   46.5873  130.1587 N   0  0  0  0  0  0  0  0  0  0  0  0
    6.7973   46.2414  130.3358 H   0  0  0  0  0  0  0  0  0  0  0  0
    7.7044   47.9097  130.0912 C   0  0  0  0  0  0  0  0  0  0  0  0
    8.5982   48.9385  130.4966 C   0  0  0  0  0  0  0  0  0  0  0  0
    8.2417   50.2453  130.4776 C   0  0  0  0  0  0  0  0  0  0  0  0
    7.0248   50.5907  130.0733 N   0  0  0  0  0  0  0  0  0  0  0  0
    6.1332   49.6634  129.6777 C   0  0  0  0  0  0  0  0  0  0  0  0
    5.0023   50.0443  129.3083 O   0  0  0  0  0  0  0  0  0  0  0  0
    6.4596   48.3310  129.6818 C   0  0  0  0  0  0  0  0  0  0  0  0
    6.7554   51.6247  130.0603 H   0  0  0  0  0  0  0  0  0  0  0  0
   10.7002   45.9739  132.0521 O   0  0  0  0  0  0  0  0  0  0  0  0
   10.0156   45.4181  134.3465 C   0  0  0  0  0  0  0  0  0  0  0  0
   10.2913   44.6588  135.4933 C   0  0  0  0  0  0  0  0  0  0  0  0
   11.3592   43.7913  135.5746 C   0  0  0  0  0  0  0  0  0  0  0  0
   11.6362   43.0522  136.6618 F   0  0  0  0  0  0  0  0  0  0  0  0
   12.1570   43.7037  134.4553 C   0  0  0  0  0  0  0  0  0  0  0  0
   11.9176   44.4313  133.3194 C   0  0  0  0  0  0  0  0  0  0  0  0
   10.8152   45.3135  133.2669 C   0  0  0  0  0  0  0  0  0  0  0  0
    8.9555   47.5713  134.0337 C   0  0  0  0  0  0  0  0  0  0  0  0
    8.9378   46.2258  134.3796 O   0  0  0  0  0  0  0  0  0  0  0  0
 29 30  1  0  0  0
 30 22  1  0  0  0
 22 23  2  0  0  0
 23 24  1  0  0  0
 24 25  1  0  0  0
 24 26  2  0  0  0
 26 27  1  0  0  0
 27 28  2  0  0  0
 28 21  1  0  0  0
 21  1  1  0  0  0
  1  2  2  0  0  0
  2  3  1  0  0  0
  3  4  1  0  0  0
  3  5  2  0  0  0
  5  6  1  0  0  0
  5  7  1  0  0  0
  7  8  2  0  0  0
  8  9  1  0  0  0
  9 10  2  0  0  0
  9 11  1  0  0  0
 11 13  1  0  0  0
 13 14  1  0  0  0
 14 15  2  0  0  0
 15 16  1  0  0  0
 16 17  1  0  0  0
 17 18  2  0  0  0
 17 19  1  0  0  0
 28 22  1  0  0  0
  8  1  1  0  0  0
 19 13  2  0  0  0
 11 12  1  0  0  0
 16 20  1  0  0  0
M  END
> <minimizedAffinity>
-2.73436

> <CNNscore>
0.4255409241

> <CNNaffinity>
7.7175168991

> <CNN_VS>
3.2841193676

> <CNNaffinity_variance>
0.4689337313

$$$$
[H]c1c([H])c(Oc2c([H])c(Cl)c(Cl)c([H])c2C(=O)N([H])c2c([H])c([H])n([H])c(=O)c2[H])c(OC([H])([H])[H])c([H])c1F


 30 32  0  0  0  0  0  0  0  0999 V2000
   10.6572   45.5730  132.2634 C   0  0  0  0  0  0  0  0  0  0  0  0
   11.6039   44.5458  132.3107 C   0  0  0  0  0  0  0  0  0  0  0  0
   11.9323   44.0110  133.5247 C   0  0  0  0  0  0  0  0  0  0  0  0
   13.1111   42.7172  133.6765 Cl  0  0  0  0  0  0  0  0  0  0  0  0
   11.3382   44.4816  134.6744 C   0  0  0  0  0  0  0  0  0  0  0  0
   11.7552   43.8145  136.2409 Cl  0  0  0  0  0  0  0  0  0  0  0  0
   10.4002   45.4967  134.6063 C   0  0  0  0  0  0  0  0  0  0  0  0
   10.0390   46.0622  133.3718 C   0  0  0  0  0  0  0  0  0  0  0  0
    8.8250   46.9312  133.3390 C   0  0  0  0  0  0  0  0  0  0  0  0
    8.3597   47.1922  134.5107 O   0  0  0  0  0  0  0  0  0  0  0  0
    8.3192   47.3772  132.1932 N   0  0  0  0  0  0  0  0  0  0  0  0
    7.2922   47.9935  132.8430 H   0  0  0  0  0  0  0  0  0  0  0  0
    7.7932   47.8410  131.0013 C   0  0  0  0  0  0  0  0  0  0  0  0
    7.0440   46.9631  130.1709 C   0  0  0  0  0  0  0  0  0  0  0  0
    6.5356   47.3629  128.9807 C   0  0  0  0  0  0  0  0  0  0  0  0
    6.7363   48.6076  128.5630 N   0  0  0  0  0  0  0  0  0  0  0  0
    7.4375   49.4859  129.3034 C   0  0  0  0  0  0  0  0  0  0  0  0
    7.5968   50.6434  128.8615 O   0  0  0  0  0  0  0  0  0  0  0  0
    7.9656   49.1169  130.5145 C   0  0  0  0  0  0  0  0  0  0  0  0
    6.3286   48.9125  127.6235 H   0  0  0  0  0  0  0  0  0  0  0  0
   10.3910   46.0708  130.9976 O   0  0  0  0  0  0  0  0  0  0  0  0
    9.0290   44.3283  129.9250 C   0  0  0  0  0  0  0  0  0  0  0  0
    8.7687   43.6132  128.7466 C   0  0  0  0  0  0  0  0  0  0  0  0
    9.4645   43.8258  127.5760 C   0  0  0  0  0  0  0  0  0  0  0  0
    9.2261   43.1550  126.4365 F   0  0  0  0  0  0  0  0  0  0  0  0
   10.4454   44.7918  127.6194 C   0  0  0  0  0  0  0  0  0  0  0  0
   10.7266   45.5077  128.7531 C   0  0  0  0  0  0  0  0  0  0  0  0
    9.9966   45.2661  129.9384 C   0  0  0  0  0  0  0  0  0  0  0  0
    8.4214   42.8948  131.7780 C   0  0  0  0  0  0  0  0  0  0  0  0
    8.2778   44.0407  131.0058 O   0  0  0  0  0  0  0  0  0  0  0  0
 29 30  1  0  0  0
 30 22  1  0  0  0
 22 23  2  0  0  0
 23 24  1  0  0  0
 24 25  1  0  0  0
 24 26  2  0  0  0
 26 27  1  0  0  0
 27 28  2  0  0  0
 28 21  1  0  0  0
 21  1  1  0  0  0
  1  2  2  0  0  0
  2  3  1  0  0  0
  3  4  1  0  0  0
  3  5  2  0  0  0
  5  6  1  0  0  0
  5  7  1  0  0  0
  7  8  2  0  0  0
  8  9  1  0  0  0
  9 10  2  0  0  0
  9 11  1  0  0  0
 11 13  1  0  0  0
 13 14  1  0  0  0
 14 15  2  0  0  0
 15 16  1  0  0  0
 16 17  1  0  0  0
 17 18  2  0  0  0
 17 19  1  0  0  0
 28 22  1  0  0  0
  8  1  1  0  0  0
 19 13  2  0  0  0
 11 12  1  0  0  0
 16 20  1  0  0  0
M  END
> <minimizedAffinity>
-3.46566

> <CNNscore>
0.4244579673

> <CNNaffinity>
7.6182999611

> <CNN_VS>
3.2336480618

> <CNNaffinity_variance>
0.1308445632

$$$$
[H]c1c([H])c(Oc2c([H])c(Cl)c(Cl)c([H])c2C(=O)N([H])c2c([H])c([H])n([H])c(=O)c2[H])c(OC([H])([H])[H])c([H])c1F


 30 32  0  0  0  0  0  0  0  0999 V2000
    9.7325   45.0297  131.6442 C   0  0  0  0  0  0  0  0  0  0  0  0
    9.6135   44.3325  130.4387 C   0  0  0  0  0  0  0  0  0  0  0  0
    8.9287   44.9139  129.4089 C   0  0  0  0  0  0  0  0  0  0  0  0
    8.7309   44.1096  127.8595 Cl  0  0  0  0  0  0  0  0  0  0  0  0
    8.3689   46.1623  129.5645 C   0  0  0  0  0  0  0  0  0  0  0  0
    7.4783   46.9187  128.2577 Cl  0  0  0  0  0  0  0  0  0  0  0  0
    8.5011   46.8383  130.7647 C   0  0  0  0  0  0  0  0  0  0  0  0
    9.2039   46.2676  131.8393 C   0  0  0  0  0  0  0  0  0  0  0  0
    9.5583   47.1589  132.9839 C   0  0  0  0  0  0  0  0  0  0  0  0
    9.9600   46.5115  134.0217 O   0  0  0  0  0  0  0  0  0  0  0  0
    9.4653   48.4819  132.8904 N   0  0  0  0  0  0  0  0  0  0  0  0
    9.8476   48.6381  134.1890 H   0  0  0  0  0  0  0  0  0  0  0  0
    9.3686   49.8579  132.7931 C   0  0  0  0  0  0  0  0  0  0  0  0
    8.9153   50.4501  131.5826 C   0  0  0  0  0  0  0  0  0  0  0  0
    8.8334   51.7936  131.4294 C   0  0  0  0  0  0  0  0  0  0  0  0
    9.1852   52.5936  132.4294 N   0  0  0  0  0  0  0  0  0  0  0  0
    9.6227   52.0939  133.5999 C   0  0  0  0  0  0  0  0  0  0  0  0
    9.9416   52.8924  134.5061 O   0  0  0  0  0  0  0  0  0  0  0  0
    9.7170   50.7388  133.7917 C   0  0  0  0  0  0  0  0  0  0  0  0
    9.1143   53.6517  132.2980 H   0  0  0  0  0  0  0  0  0  0  0  0
   10.4282   44.3658  132.6424 O   0  0  0  0  0  0  0  0  0  0  0  0
    9.9727   41.9913  133.0854 C   0  0  0  0  0  0  0  0  0  0  0  0
   10.4191   40.6705  132.9308 C   0  0  0  0  0  0  0  0  0  0  0  0
   11.5938   40.3509  132.2845 C   0  0  0  0  0  0  0  0  0  0  0  0
   12.0349   39.0923  132.1221 F   0  0  0  0  0  0  0  0  0  0  0  0
   12.3216   41.4099  131.7886 C   0  0  0  0  0  0  0  0  0  0  0  0
   11.9159   42.7116  131.9228 C   0  0  0  0  0  0  0  0  0  0  0  0
   10.7071   43.0076  132.5917 C   0  0  0  0  0  0  0  0  0  0  0  0
    7.7854   43.0104  133.2723 C   0  0  0  0  0  0  0  0  0  0  0  0
    8.8035   42.1816  133.7271 O   0  0  0  0  0  0  0  0  0  0  0  0
 29 30  1  0  0  0
 30 22  1  0  0  0
 22 23  2  0  0  0
 23 24  1  0  0  0
 24 25  1  0  0  0
 24 26  2  0  0  0
 26 27  1  0  0  0
 27 28  2  0  0  0
 28 21  1  0  0  0
 21  1  1  0  0  0
  1  2  2  0  0  0
  2  3  1  0  0  0
  3  4  1  0  0  0
  3  5  2  0  0  0
  5  6  1  0  0  0
  5  7  1  0  0  0
  7  8  2  0  0  0
  8  9  1  0  0  0
  9 10  2  0  0  0
  9 11  1  0  0  0
 11 13  1  0  0  0
 13 14  1  0  0  0
 14 15  2  0  0  0
 15 16  1  0  0  0
 16 17  1  0  0  0
 17 18  2  0  0  0
 17 19  1  0  0  0
 28 22  1  0  0  0
  8  1  1  0  0  0
 19 13  2  0  0  0
 11 12  1  0  0  0
 16 20  1  0  0  0
M  END
> <minimizedAffinity>
22.32553

> <CNNscore>
0.4225794971

> <CNNaffinity>
7.1841926575

> <CNN_VS>
3.0358924866

> <CNNaffinity_variance>
1.7294414043

$$$$
[H]c1c([H])c(Oc2c([H])c(Cl)c(Cl)c([H])c2C(=O)N([H])c2c([H])c([H])n([H])c(=O)c2[H])c(OC([H])([H])[H])c([H])c1F


 30 32  0  0  0  0  0  0  0  0999 V2000
   10.0657   45.9978  132.6431 C   0  0  0  0  0  0  0  0  0  0  0  0
    9.7290   44.6590  132.8619 C   0  0  0  0  0  0  0  0  0  0  0  0
    8.6804   44.3726  133.6901 C   0  0  0  0  0  0  0  0  0  0  0  0
    8.1884   42.7188  134.0206 Cl  0  0  0  0  0  0  0  0  0  0  0  0
    7.9751   45.3892  134.2944 C   0  0  0  0  0  0  0  0  0  0  0  0
    6.6341   45.0400  135.3680 Cl  0  0  0  0  0  0  0  0  0  0  0  0
    8.3216   46.7087  134.0621 C   0  0  0  0  0  0  0  0  0  0  0  0
    9.3917   47.0335  133.2114 C   0  0  0  0  0  0  0  0  0  0  0  0
    9.5210   48.4562  132.7765 C   0  0  0  0  0  0  0  0  0  0  0  0
   10.3193   49.1402  133.5197 O   0  0  0  0  0  0  0  0  0  0  0  0
    8.8690   48.9216  131.7154 N   0  0  0  0  0  0  0  0  0  0  0  0
    9.3559   50.1777  131.9201 H   0  0  0  0  0  0  0  0  0  0  0  0
    8.1907   49.4055  130.6117 C   0  0  0  0  0  0  0  0  0  0  0  0
    7.8805   48.5313  129.5342 C   0  0  0  0  0  0  0  0  0  0  0  0
    7.2453   48.9660  128.4194 C   0  0  0  0  0  0  0  0  0  0  0  0
    6.8980   50.2435  128.3146 N   0  0  0  0  0  0  0  0  0  0  0  0
    7.1643   51.1206  129.3002 C   0  0  0  0  0  0  0  0  0  0  0  0
    6.8162   52.3106  129.1482 O   0  0  0  0  0  0  0  0  0  0  0  0
    7.8042   50.7159  130.4441 C   0  0  0  0  0  0  0  0  0  0  0  0
    6.3953   50.5746  127.4317 H   0  0  0  0  0  0  0  0  0  0  0  0
   11.1490   46.2030  131.8032 O   0  0  0  0  0  0  0  0  0  0  0  0
   12.1058   44.5902  130.2142 C   0  0  0  0  0  0  0  0  0  0  0  0
   12.0800   44.0897  128.9040 C   0  0  0  0  0  0  0  0  0  0  0  0
   11.2254   44.5740  127.9372 C   0  0  0  0  0  0  0  0  0  0  0  0
   11.1823   44.1041  126.6792 F   0  0  0  0  0  0  0  0  0  0  0  0
   10.3824   45.5914  128.3262 C   0  0  0  0  0  0  0  0  0  0  0  0
   10.3820   46.1045  129.5966 C   0  0  0  0  0  0  0  0  0  0  0  0
   11.2709   45.5878  130.5657 C   0  0  0  0  0  0  0  0  0  0  0  0
   12.6125   43.2396  132.1576 C   0  0  0  0  0  0  0  0  0  0  0  0
   12.9777   44.0317  131.0762 O   0  0  0  0  0  0  0  0  0  0  0  0
 29 30  1  0  0  0
 30 22  1  0  0  0
 22 23  2  0  0  0
 23 24  1  0  0  0
 24 25  1  0  0  0
 24 26  2  0  0  0
 26 27  1  0  0  0
 27 28  2  0  0  0
 28 21  1  0  0  0
 21  1  1  0  0  0
  1  2  2  0  0  0
  2  3  1  0  0  0
  3  4  1  0  0  0
  3  5  2  0  0  0
  5  6  1  0  0  0
  5  7  1  0  0  0
  7  8  2  0  0  0
  8  9  1  0  0  0
  9 10  2  0  0  0
  9 11  1  0  0  0
 11 13  1  0  0  0
 13 14  1  0  0  0
 14 15  2  0  0  0
 15 16  1  0  0  0
 16 17  1  0  0  0
 17 18  2  0  0  0
 17 19  1  0  0  0
 28 22  1  0  0  0
  8  1  1  0  0  0
 19 13  2  0  0  0
 11 12  1  0  0  0
 16 20  1  0  0  0
M  END
> <minimizedAffinity>
-0.91063

> <CNNscore>
0.4140172303

> <CNNaffinity>
7.4012041092

> <CNN_VS>
3.0642259121

> <CNNaffinity_variance>
0.4313800931

$$$$
[H]c1c([H])c(Oc2c([H])c(Cl)c(Cl)c([H])c2C(=O)N([H])c2c([H])c([H])n([H])c(=O)c2[H])c(OC([H])([H])[H])c([H])c1F


 30 32  0  0  0  0  0  0  0  0999 V2000
   10.7617   44.9567  131.1625 C   0  0  0  0  0  0  0  0  0  0  0  0
   11.1270   43.7853  131.8319 C   0  0  0  0  0  0  0  0  0  0  0  0
   10.7970   42.5813  131.2760 C   0  0  0  0  0  0  0  0  0  0  0  0
   11.2171   41.0603  132.0484 Cl  0  0  0  0  0  0  0  0  0  0  0  0
   10.1167   42.5319  130.0798 C   0  0  0  0  0  0  0  0  0  0  0  0
    9.6762   40.9965  129.3576 Cl  0  0  0  0  0  0  0  0  0  0  0  0
    9.7673   43.7029  129.4304 C   0  0  0  0  0  0  0  0  0  0  0  0
   10.0976   44.9551  129.9755 C   0  0  0  0  0  0  0  0  0  0  0  0
    9.9572   46.1513  129.0927 C   0  0  0  0  0  0  0  0  0  0  0  0
   10.9604   46.3157  128.3027 O   0  0  0  0  0  0  0  0  0  0  0  0
    8.8815   46.9310  129.1432 N   0  0  0  0  0  0  0  0  0  0  0  0
    9.4021   47.7737  128.2073 H   0  0  0  0  0  0  0  0  0  0  0  0
    7.7627   47.7420  129.1958 C   0  0  0  0  0  0  0  0  0  0  0  0
    6.4664   47.1628  129.1199 C   0  0  0  0  0  0  0  0  0  0  0  0
    5.3422   47.9184  129.1362 C   0  0  0  0  0  0  0  0  0  0  0  0
    5.4378   49.2402  129.2230 N   0  0  0  0  0  0  0  0  0  0  0  0
    6.6362   49.8482  129.2974 C   0  0  0  0  0  0  0  0  0  0  0  0
    6.6676   51.0945  129.3763 O   0  0  0  0  0  0  0  0  0  0  0  0
    7.7957   49.1152  129.2855 C   0  0  0  0  0  0  0  0  0  0  0  0
    4.5443   49.8260  129.2374 H   0  0  0  0  0  0  0  0  0  0  0  0
   11.1196   46.1348  131.7988 O   0  0  0  0  0  0  0  0  0  0  0  0
    9.8398   48.0267  132.7068 C   0  0  0  0  0  0  0  0  0  0  0  0
    9.0212   48.4869  133.7488 C   0  0  0  0  0  0  0  0  0  0  0  0
    8.6622   47.6971  134.8197 C   0  0  0  0  0  0  0  0  0  0  0  0
    7.8752   48.1182  135.8240 F   0  0  0  0  0  0  0  0  0  0  0  0
    9.1546   46.4108  134.8177 C   0  0  0  0  0  0  0  0  0  0  0  0
    9.9573   45.9293  133.8173 C   0  0  0  0  0  0  0  0  0  0  0  0
   10.3090   46.7637  132.7328 C   0  0  0  0  0  0  0  0  0  0  0  0
    9.5734   50.1605  131.5960 C   0  0  0  0  0  0  0  0  0  0  0  0
   10.1162   48.8864  131.7070 O   0  0  0  0  0  0  0  0  0  0  0  0
 29 30  1  0  0  0
 30 22  1  0  0  0
 22 23  2  0  0  0
 23 24  1  0  0  0
 24 25  1  0  0  0
 24 26  2  0  0  0
 26 27  1  0  0  0
 27 28  2  0  0  0
 28 21  1  0  0  0
 21  1  1  0  0  0
  1  2  2  0  0  0
  2  3  1  0  0  0
  3  4  1  0  0  0
  3  5  2  0  0  0
  5  6  1  0  0  0
  5  7  1  0  0  0
  7  8  2  0  0  0
  8  9  1  0  0  0
  9 10  2  0  0  0
  9 11  1  0  0  0
 11 13  1  0  0  0
 13 14  1  0  0  0
 14 15  2  0  0  0
 15 16  1  0  0  0
 16 17  1  0  0  0
 17 18  2  0  0  0
 17 19  1  0  0  0
 28 22  1  0  0  0
  8  1  1  0  0  0
 19 13  2  0  0  0
 11 12  1  0  0  0
 16 20  1  0  0  0
M  END
> <minimizedAffinity>
-4.65698

> <CNNscore>
0.4122159779

> <CNNaffinity>
7.4651246071

> <CNN_VS>
3.0772435665

> <CNNaffinity_variance>
0.0638323203

$$$$
[H]OC([H])([H])[C@@]1(O[H])C([H])([H])[C@@]2([H])O[C@]1(C([H])([H])[H])n1c3c([H])c([H])c([H])c([H])c3c3c4c(c5c6c([H])c([H])c([H])c([H])c6n2c5c31)C([H])([H])N([H])C4=O


 36 43  0  0  0  0  0  0  0  0999 V2000
    9.9994   43.8624  134.6250 C   0  0  0  0  0  0  0  0  0  0  0  0
   10.5418   44.6139  133.4129 C   0  0  0  0  0  0  0  0  0  0  0  0
   10.2652   43.6661  132.3823 O   0  0  0  0  0  0  0  0  0  0  0  0
   11.1567   43.8086  131.3793 C   0  0  0  0  0  0  0  0  0  0  0  0
   12.3902   44.4845  131.9125 C   0  0  0  0  0  0  0  0  0  0  0  0
   12.0137   44.7100  133.3665 C   0  0  0  0  0  0  0  0  0  0  0  0
   12.5190   45.9655  133.6957 O   0  0  0  0  0  0  0  0  0  0  0  0
   10.5545   44.6925  130.3799 N   0  0  0  0  0  0  0  0  0  0  0  0
   10.6058   44.6129  129.0641 C   0  0  0  0  0  0  0  0  0  0  0  0
   11.2099   43.6874  128.2441 C   0  0  0  0  0  0  0  0  0  0  0  0
   11.1091   43.8405  126.8634 C   0  0  0  0  0  0  0  0  0  0  0  0
   10.4083   44.9128  126.3052 C   0  0  0  0  0  0  0  0  0  0  0  0
    9.8009   45.8435  127.1207 C   0  0  0  0  0  0  0  0  0  0  0  0
    9.9135   45.6723  128.4808 C   0  0  0  0  0  0  0  0  0  0  0  0
    9.4364   46.4038  129.5144 C   0  0  0  0  0  0  0  0  0  0  0  0
    8.6958   47.5797  129.6140 C   0  0  0  0  0  0  0  0  0  0  0  0
    8.1520   48.4231  128.5465 C   0  0  0  0  0  0  0  0  0  0  0  0
    7.4687   49.5080  129.1752 N   0  0  0  0  0  0  0  0  0  0  0  0
    7.5912   49.3429  130.6033 C   0  0  0  0  0  0  0  0  0  0  0  0
    7.0699   50.1801  131.3560 O   0  0  0  0  0  0  0  0  0  0  0  0
    8.3583   48.1367  130.8293 C   0  0  0  0  0  0  0  0  0  0  0  0
    8.7670   47.5087  132.0118 C   0  0  0  0  0  0  0  0  0  0  0  0
    8.6414   47.7593  133.3412 C   0  0  0  0  0  0  0  0  0  0  0  0
    8.0358   48.7828  134.0313 C   0  0  0  0  0  0  0  0  0  0  0  0
    8.0827   48.7973  135.4315 C   0  0  0  0  0  0  0  0  0  0  0  0
    8.7328   47.7894  136.0809 C   0  0  0  0  0  0  0  0  0  0  0  0
    9.3458   46.7526  135.3642 C   0  0  0  0  0  0  0  0  0  0  0  0
    9.3028   46.7313  134.0029 C   0  0  0  0  0  0  0  0  0  0  0  0
    9.8310   45.8491  133.1333 N   0  0  0  0  0  0  0  0  0  0  0  0
    9.4997   46.3410  131.8983 C   0  0  0  0  0  0  0  0  0  0  0  0
    9.8271   45.8041  130.6787 C   0  0  0  0  0  0  0  0  0  0  0  0
   12.9300   45.8761  134.6009 H   0  0  0  0  0  0  0  0  0  0  0  0
    6.9533   50.3080  128.6887 H   0  0  0  0  0  0  0  0  0  0  0  0
   12.6857   43.6083  134.1469 C   0  0  0  0  0  0  0  0  0  0  0  0
   13.0782   42.6307  133.2010 O   0  0  0  0  0  0  0  0  0  0  0  0
   13.6548   41.9502  133.6755 H   0  0  0  0  0  0  0  0  0  0  0  0
  2  1  1  0  0  0
  2  3  1  0  0  0
  3  4  1  0  0  0
  4  5  1  0  0  0
  5  6  1  0  0  0
  6  7  1  0  0  0
  6 34  1  0  0  0
 34 35  1  0  0  0
  4  8  1  0  0  0
  8  9  1  0  0  0
  9 10  2  0  0  0
 10 11  1  0  0  0
 11 12  2  0  0  0
 12 13  1  0  0  0
 13 14  2  0  0  0
 14 15  1  0  0  0
 15 16  2  0  0  0
 16 17  1  0  0  0
 17 18  1  0  0  0
 18 19  1  0  0  0
 19 20  2  0  0  0
 19 21  1  0  0  0
 21 22  2  0  0  0
 22 23  1  0  0  0
 23 24  2  0  0  0
 24 25  1  0  0  0
 25 26  2  0  0  0
 26 27  1  0  0  0
 27 28  2  0  0  0
 28 29  1  0  0  0
 29 30  1  0  0  0
 30 31  2  0  0  0
  6  2  1  0  0  0
 31  8  1  0  0  0
 29  2  1  0  0  0
 14  9  1  0  0  0
 31 15  1  0  0  0
 21 16  1  0  0  0
 30 22  1  0  0  0
 28 23  1  0  0  0
  7 32  1  0  0  0
 35 36  1  0  0  0
 18 33  1  0  0  0
M  END
> <minimizedAffinity>
5.83491

> <CNNscore>
0.4015923738

> <CNNaffinity>
7.3349332809

> <CNN_VS>
2.9456532001

> <CNNaffinity_variance>
0.2924570441

$$$$
[H]OC([H])([H])[C@@]1(O[H])C([H])([H])[C@@]2([H])O[C@]1(C([H])([H])[H])n1c3c([H])c([H])c([H])c([H])c3c3c4c(c5c6c([H])c([H])c([H])c([H])c6n2c5c31)C([H])([H])N([H])C4=O


 36 43  0  0  0  0  0  0  0  0999 V2000
    8.2978   48.7799  128.5250 C   0  0  0  0  0  0  0  0  0  0  0  0
    8.1764   47.6124  129.4998 C   0  0  0  0  0  0  0  0  0  0  0  0
    8.7704   46.5718  128.7245 O   0  0  0  0  0  0  0  0  0  0  0  0
    8.2508   45.3797  129.0851 C   0  0  0  0  0  0  0  0  0  0  0  0
    6.9116   45.6047  129.7321 C   0  0  0  0  0  0  0  0  0  0  0  0
    6.7985   47.1186  129.6877 C   0  0  0  0  0  0  0  0  0  0  0  0
    6.2147   47.4881  130.8971 O   0  0  0  0  0  0  0  0  0  0  0  0
    9.1440   44.7975  130.0881 N   0  0  0  0  0  0  0  0  0  0  0  0
    9.5204   43.5417  130.2340 C   0  0  0  0  0  0  0  0  0  0  0  0
    9.2129   42.4214  129.4963 C   0  0  0  0  0  0  0  0  0  0  0  0
    9.7545   41.1947  129.8733 C   0  0  0  0  0  0  0  0  0  0  0  0
   10.5987   41.0883  130.9817 C   0  0  0  0  0  0  0  0  0  0  0  0
   10.9107   42.2064  131.7251 C   0  0  0  0  0  0  0  0  0  0  0  0
   10.3647   43.4069  131.3344 C   0  0  0  0  0  0  0  0  0  0  0  0
   10.4829   44.6512  131.8527 C   0  0  0  0  0  0  0  0  0  0  0  0
   11.1524   45.1886  132.9501 C   0  0  0  0  0  0  0  0  0  0  0  0
   12.0124   44.5172  133.9279 C   0  0  0  0  0  0  0  0  0  0  0  0
   12.4566   45.5129  134.8501 N   0  0  0  0  0  0  0  0  0  0  0  0
   11.8793   46.7747  134.4546 C   0  0  0  0  0  0  0  0  0  0  0  0
   12.1302   47.7903  135.1215 O   0  0  0  0  0  0  0  0  0  0  0  0
   11.0796   46.5268  133.2741 C   0  0  0  0  0  0  0  0  0  0  0  0
   10.3105   47.3865  132.4810 C   0  0  0  0  0  0  0  0  0  0  0  0
   10.0002   48.7091  132.4967 C   0  0  0  0  0  0  0  0  0  0  0  0
   10.3510   49.7264  133.3527 C   0  0  0  0  0  0  0  0  0  0  0  0
    9.8544   51.0181  133.1342 C   0  0  0  0  0  0  0  0  0  0  0  0
    9.0288   51.2370  132.0709 C   0  0  0  0  0  0  0  0  0  0  0  0
    8.6794   50.1903  131.2068 C   0  0  0  0  0  0  0  0  0  0  0  0
    9.1598   48.9323  131.4122 C   0  0  0  0  0  0  0  0  0  0  0  0
    8.9403   47.7976  130.7211 N   0  0  0  0  0  0  0  0  0  0  0  0
    9.6530   46.8402  131.3936 C   0  0  0  0  0  0  0  0  0  0  0  0
    9.7367   45.5048  131.0894 C   0  0  0  0  0  0  0  0  0  0  0  0
    5.5333   48.1846  130.6807 H   0  0  0  0  0  0  0  0  0  0  0  0
   13.1020   45.3659  135.6893 H   0  0  0  0  0  0  0  0  0  0  0  0
    5.9097   47.4359  128.5112 C   0  0  0  0  0  0  0  0  0  0  0  0
    5.1739   48.5920  128.8667 O   0  0  0  0  0  0  0  0  0  0  0  0
    4.6760   48.9100  128.0472 H   0  0  0  0  0  0  0  0  0  0  0  0
  2  1  1  0  0  0
  2  3  1  0  0  0
  3  4  1  0  0  0
  4  5  1  0  0  0
  5  6  1  0  0  0
  6  7  1  0  0  0
  6 34  1  0  0  0
 34 35  1  0  0  0
  4  8  1  0  0  0
  8  9  1  0  0  0
  9 10  2  0  0  0
 10 11  1  0  0  0
 11 12  2  0  0  0
 12 13  1  0  0  0
 13 14  2  0  0  0
 14 15  1  0  0  0
 15 16  2  0  0  0
 16 17  1  0  0  0
 17 18  1  0  0  0
 18 19  1  0  0  0
 19 20  2  0  0  0
 19 21  1  0  0  0
 21 22  2  0  0  0
 22 23  1  0  0  0
 23 24  2  0  0  0
 24 25  1  0  0  0
 25 26  2  0  0  0
 26 27  1  0  0  0
 27 28  2  0  0  0
 28 29  1  0  0  0
 29 30  1  0  0  0
 30 31  2  0  0  0
  6  2  1  0  0  0
 31  8  1  0  0  0
 29  2  1  0  0  0
 14  9  1  0  0  0
 31 15  1  0  0  0
 21 16  1  0  0  0
 30 22  1  0  0  0
 28 23  1  0  0  0
  7 32  1  0  0  0
 35 36  1  0  0  0
 18 33  1  0  0  0
M  END
> <minimizedAffinity>
6.78175

> <CNNscore>
0.3673489094

> <CNNaffinity>
6.8603043556

> <CNN_VS>
2.5201253891

> <CNNaffinity_variance>
0.3102044463

$$$$
[H]OC([H])([H])[C@@]1(O[H])C([H])([H])[C@@]2([H])O[C@]1(C([H])([H])[H])n1c3c([H])c([H])c([H])c([H])c3c3c4c(c5c6c([H])c([H])c([H])c([H])c6n2c5c31)C([H])([H])N([H])C4=O


 36 43  0  0  0  0  0  0  0  0999 V2000
   12.6813   43.9505  131.2088 C   0  0  0  0  0  0  0  0  0  0  0  0
   11.5532   44.8023  131.7830 C   0  0  0  0  0  0  0  0  0  0  0  0
   12.2830   45.9699  132.1586 O   0  0  0  0  0  0  0  0  0  0  0  0
   11.6690   46.5790  133.1945 C   0  0  0  0  0  0  0  0  0  0  0  0
   10.8061   45.5765  133.9107 C   0  0  0  0  0  0  0  0  0  0  0  0
   11.0313   44.3260  133.0786 C   0  0  0  0  0  0  0  0  0  0  0  0
    9.7915   43.6959  133.0029 O   0  0  0  0  0  0  0  0  0  0  0  0
   10.7935   47.6123  132.6390 N   0  0  0  0  0  0  0  0  0  0  0  0
   10.5567   48.8289  133.0905 C   0  0  0  0  0  0  0  0  0  0  0  0
   11.0608   49.4937  134.1849 C   0  0  0  0  0  0  0  0  0  0  0  0
   10.6363   50.7958  134.4389 C   0  0  0  0  0  0  0  0  0  0  0  0
    9.7129   51.4300  133.6036 C   0  0  0  0  0  0  0  0  0  0  0  0
    9.2040   50.7699  132.5057 C   0  0  0  0  0  0  0  0  0  0  0  0
    9.6374   49.4852  132.2743 C   0  0  0  0  0  0  0  0  0  0  0  0
    9.3256   48.6007  131.2989 C   0  0  0  0  0  0  0  0  0  0  0  0
    8.4653   48.6239  130.2031 C   0  0  0  0  0  0  0  0  0  0  0  0
    7.5955   49.7053  129.7334 C   0  0  0  0  0  0  0  0  0  0  0  0
    6.9227   49.2270  128.5682 N   0  0  0  0  0  0  0  0  0  0  0  0
    7.3628   47.8748  128.3241 C   0  0  0  0  0  0  0  0  0  0  0  0
    6.9021   47.2546  127.3534 O   0  0  0  0  0  0  0  0  0  0  0  0
    8.3170   47.5429  129.3603 C   0  0  0  0  0  0  0  0  0  0  0  0
    9.0509   46.3755  129.6021 C   0  0  0  0  0  0  0  0  0  0  0  0
    9.1528   45.1515  129.0213 C   0  0  0  0  0  0  0  0  0  0  0  0
    8.5287   44.5965  127.9291 C   0  0  0  0  0  0  0  0  0  0  0  0
    8.8169   43.2751  127.5636 C   0  0  0  0  0  0  0  0  0  0  0  0
    9.7153   42.5658  128.3053 C   0  0  0  0  0  0  0  0  0  0  0  0
   10.3437   43.1446  129.4163 C   0  0  0  0  0  0  0  0  0  0  0  0
   10.0695   44.4293  129.7766 C   0  0  0  0  0  0  0  0  0  0  0  0
   10.5438   45.1613  130.8024 N   0  0  0  0  0  0  0  0  0  0  0  0
    9.9027   46.3670  130.6918 C   0  0  0  0  0  0  0  0  0  0  0  0
   10.0342   47.4531  131.5200 C   0  0  0  0  0  0  0  0  0  0  0  0
    9.9607   42.7220  133.1409 H   0  0  0  0  0  0  0  0  0  0  0  0
    6.2159   49.7628  127.9718 H   0  0  0  0  0  0  0  0  0  0  0  0
   12.0403   43.4983  133.8345 C   0  0  0  0  0  0  0  0  0  0  0  0
   11.5442   43.3709  135.1543 O   0  0  0  0  0  0  0  0  0  0  0  0
   12.1254   42.7052  135.6439 H   0  0  0  0  0  0  0  0  0  0  0  0
  2  1  1  0  0  0
  2  3  1  0  0  0
  3  4  1  0  0  0
  4  5  1  0  0  0
  5  6  1  0  0  0
  6  7  1  0  0  0
  6 34  1  0  0  0
 34 35  1  0  0  0
  4  8  1  0  0  0
  8  9  1  0  0  0
  9 10  2  0  0  0
 10 11  1  0  0  0
 11 12  2  0  0  0
 12 13  1  0  0  0
 13 14  2  0  0  0
 14 15  1  0  0  0
 15 16  2  0  0  0
 16 17  1  0  0  0
 17 18  1  0  0  0
 18 19  1  0  0  0
 19 20  2  0  0  0
 19 21  1  0  0  0
 21 22  2  0  0  0
 22 23  1  0  0  0
 23 24  2  0  0  0
 24 25  1  0  0  0
 25 26  2  0  0  0
 26 27  1  0  0  0
 27 28  2  0  0  0
 28 29  1  0  0  0
 29 30  1  0  0  0
 30 31  2  0  0  0
  6  2  1  0  0  0
 31  8  1  0  0  0
 29  2  1  0  0  0
 14  9  1  0  0  0
 31 15  1  0  0  0
 21 16  1  0  0  0
 30 22  1  0  0  0
 28 23  1  0  0  0
  7 32  1  0  0  0
 35 36  1  0  0  0
 18 33  1  0  0  0
M  END
> <minimizedAffinity>
6.92353

> <CNNscore>
0.3238920569

> <CNNaffinity>
7.2489304543

> <CNN_VS>
2.3478710651

> <CNNaffinity_variance>
0.1981303394

$$$$
[H]OC([H])([H])[C@@]1(O[H])C([H])([H])[C@@]2([H])O[C@]1(C([H])([H])[H])n1c3c([H])c([H])c([H])c([H])c3c3c4c(c5c6c([H])c([H])c([H])c([H])c6n2c5c31)C([H])([H])N([H])C4=O


 36 43  0  0  0  0  0  0  0  0999 V2000
   12.9702   43.6914  130.9422 C   0  0  0  0  0  0  0  0  0  0  0  0
   11.6133   44.0634  131.5325 C   0  0  0  0  0  0  0  0  0  0  0  0
   12.0300   44.7895  132.6883 O   0  0  0  0  0  0  0  0  0  0  0  0
   11.0914   44.6909  133.6529 C   0  0  0  0  0  0  0  0  0  0  0  0
   10.2543   43.4672  133.3986 C   0  0  0  0  0  0  0  0  0  0  0  0
   10.8755   42.9290  132.1214 C   0  0  0  0  0  0  0  0  0  0  0  0
    9.8108   42.4717  131.3486 O   0  0  0  0  0  0  0  0  0  0  0  0
   10.2221   45.8633  133.5402 N   0  0  0  0  0  0  0  0  0  0  0  0
    9.6882   46.5948  134.4992 C   0  0  0  0  0  0  0  0  0  0  0  0
    9.7952   46.4967  135.8677 C   0  0  0  0  0  0  0  0  0  0  0  0
    9.1161   47.4142  136.6659 C   0  0  0  0  0  0  0  0  0  0  0  0
    8.3342   48.4243  136.0994 C   0  0  0  0  0  0  0  0  0  0  0  0
    8.2225   48.5282  134.7294 C   0  0  0  0  0  0  0  0  0  0  0  0
    8.9018   47.6116  133.9611 C   0  0  0  0  0  0  0  0  0  0  0  0
    8.9852   47.4599  132.6191 C   0  0  0  0  0  0  0  0  0  0  0  0
    8.4262   48.1227  131.5284 C   0  0  0  0  0  0  0  0  0  0  0  0
    7.5338   49.2845  131.5108 C   0  0  0  0  0  0  0  0  0  0  0  0
    7.2523   49.5771  130.1417 N   0  0  0  0  0  0  0  0  0  0  0  0
    7.9521   48.6129  129.3279 C   0  0  0  0  0  0  0  0  0  0  0  0
    7.8491   48.6752  128.0931 O   0  0  0  0  0  0  0  0  0  0  0  0
    8.6655   47.7323  130.2279 C   0  0  0  0  0  0  0  0  0  0  0  0
    9.4976   46.6341  129.9806 C   0  0  0  0  0  0  0  0  0  0  0  0
    9.9353   45.9728  128.8775 C   0  0  0  0  0  0  0  0  0  0  0  0
    9.6951   46.1602  127.5366 C   0  0  0  0  0  0  0  0  0  0  0  0
   10.2743   45.2929  126.6011 C   0  0  0  0  0  0  0  0  0  0  0  0
   11.0674   44.2763  127.0457 C   0  0  0  0  0  0  0  0  0  0  0  0
   11.3033   44.0972  128.4156 C   0  0  0  0  0  0  0  0  0  0  0  0
   10.7447   44.9376  129.3307 C   0  0  0  0  0  0  0  0  0  0  0  0
   10.8291   44.9343  130.6746 N   0  0  0  0  0  0  0  0  0  0  0  0
   10.0475   45.9868  131.0723 C   0  0  0  0  0  0  0  0  0  0  0  0
    9.7950   46.3899  132.3594 C   0  0  0  0  0  0  0  0  0  0  0  0
   10.0970   41.5967  130.9630 H   0  0  0  0  0  0  0  0  0  0  0  0
    6.6351   50.3664  129.7695 H   0  0  0  0  0  0  0  0  0  0  0  0
   11.7901   41.8066  132.5435 C   0  0  0  0  0  0  0  0  0  0  0  0
   11.2196   40.6142  132.0366 O   0  0  0  0  0  0  0  0  0  0  0  0
   11.8817   39.8649  132.1808 H   0  0  0  0  0  0  0  0  0  0  0  0
  2  1  1  0  0  0
  2  3  1  0  0  0
  3  4  1  0  0  0
  4  5  1  0  0  0
  5  6  1  0  0  0
  6  7  1  0  0  0
  6 34  1  0  0  0
 34 35  1  0  0  0
  4  8  1  0  0  0
  8  9  1  0  0  0
  9 10  2  0  0  0
 10 11  1  0  0  0
 11 12  2  0  0  0
 12 13  1  0  0  0
 13 14  2  0  0  0
 14 15  1  0  0  0
 15 16  2  0  0  0
 16 17  1  0  0  0
 17 18  1  0  0  0
 18 19  1  0  0  0
 19 20  2  0  0  0
 19 21  1  0  0  0
 21 22  2  0  0  0
 22 23  1  0  0  0
 23 24  2  0  0  0
 24 25  1  0  0  0
 25 26  2  0  0  0
 26 27  1  0  0  0
 27 28  2  0  0  0
 28 29  1  0  0  0
 29 30  1  0  0  0
 30 31  2  0  0  0
  6  2  1  0  0  0
 31  8  1  0  0  0
 29  2  1  0  0  0
 14  9  1  0  0  0
 31 15  1  0  0  0
 21 16  1  0  0  0
 30 22  1  0  0  0
 28 23  1  0  0  0
  7 32  1  0  0  0
 35 36  1  0  0  0
 18 33  1  0  0  0
M  END
> <minimizedAffinity>
4.90838

> <CNNscore>
0.3061182201

> <CNNaffinity>
7.1189393997

> <CNN_VS>
2.1792371273

> <CNNaffinity_variance>
0.2496395111

$$$$
[H]OC([H])([H])[C@@]1(O[H])C([H])([H])[C@@]2([H])O[C@]1(C([H])([H])[H])n1c3c([H])c([H])c([H])c([H])c3c3c4c(c5c6c([H])c([H])c([H])c([H])c6n2c5c31)C([H])([H])N([H])C4=O


 36 43  0  0  0  0  0  0  0  0999 V2000
    7.1063   46.8855  128.9055 C   0  0  0  0  0  0  0  0  0  0  0  0
    8.1197   47.2727  129.9783 C   0  0  0  0  0  0  0  0  0  0  0  0
    7.2858   47.2463  131.1363 O   0  0  0  0  0  0  0  0  0  0  0  0
    7.7603   48.1070  132.0609 C   0  0  0  0  0  0  0  0  0  0  0  0
    8.6138   49.1395  131.3767 C   0  0  0  0  0  0  0  0  0  0  0  0
    8.5468   48.6844  129.9292 C   0  0  0  0  0  0  0  0  0  0  0  0
    9.8255   48.8811  129.4133 O   0  0  0  0  0  0  0  0  0  0  0  0
    8.6173   47.3446  132.9705 N   0  0  0  0  0  0  0  0  0  0  0  0
    8.7335   47.4463  134.2806 C   0  0  0  0  0  0  0  0  0  0  0  0
    8.0882   48.2665  135.1776 C   0  0  0  0  0  0  0  0  0  0  0  0
    8.4041   48.1687  136.5307 C   0  0  0  0  0  0  0  0  0  0  0  0
    9.3599   47.2561  136.9847 C   0  0  0  0  0  0  0  0  0  0  0  0
   10.0102   46.4316  136.0916 C   0  0  0  0  0  0  0  0  0  0  0  0
    9.6822   46.5455  134.7607 C   0  0  0  0  0  0  0  0  0  0  0  0
   10.1391   45.8878  133.6700 C   0  0  0  0  0  0  0  0  0  0  0  0
   11.0951   44.8958  133.4616 C   0  0  0  0  0  0  0  0  0  0  0  0
   11.9352   44.2013  134.4406 C   0  0  0  0  0  0  0  0  0  0  0  0
   12.7432   43.2725  133.7168 N   0  0  0  0  0  0  0  0  0  0  0  0
   12.4139   43.3930  132.3172 C   0  0  0  0  0  0  0  0  0  0  0  0
   13.0017   42.6752  131.4936 O   0  0  0  0  0  0  0  0  0  0  0  0
   11.3896   44.4092  132.2056 C   0  0  0  0  0  0  0  0  0  0  0  0
   10.7113   44.9201  131.0927 C   0  0  0  0  0  0  0  0  0  0  0  0
   10.7416   44.7067  129.7513 C   0  0  0  0  0  0  0  0  0  0  0  0
   11.4991   43.8659  128.9703 C   0  0  0  0  0  0  0  0  0  0  0  0
   11.3302   43.8726  127.5795 C   0  0  0  0  0  0  0  0  0  0  0  0
   10.4127   44.7188  127.0298 C   0  0  0  0  0  0  0  0  0  0  0  0
    9.6477   45.5705  127.8383 C   0  0  0  0  0  0  0  0  0  0  0  0
    9.8055   45.5683  129.1913 C   0  0  0  0  0  0  0  0  0  0  0  0
    9.1920   46.3060  130.1362 N   0  0  0  0  0  0  0  0  0  0  0  0
    9.7634   45.9027  131.3142 C   0  0  0  0  0  0  0  0  0  0  0  0
    9.4866   46.3752  132.5724 C   0  0  0  0  0  0  0  0  0  0  0  0
    9.7058   49.2785  128.5055 H   0  0  0  0  0  0  0  0  0  0  0  0
   13.4676   42.6007  134.1245 H   0  0  0  0  0  0  0  0  0  0  0  0
    7.5255   49.5702  129.2606 C   0  0  0  0  0  0  0  0  0  0  0  0
    7.7407   50.8767  129.7615 O   0  0  0  0  0  0  0  0  0  0  0  0
    7.1673   51.5146  129.2276 H   0  0  0  0  0  0  0  0  0  0  0  0
  2  1  1  0  0  0
  2  3  1  0  0  0
  3  4  1  0  0  0
  4  5  1  0  0  0
  5  6  1  0  0  0
  6  7  1  0  0  0
  6 34  1  0  0  0
 34 35  1  0  0  0
  4  8  1  0  0  0
  8  9  1  0  0  0
  9 10  2  0  0  0
 10 11  1  0  0  0
 11 12  2  0  0  0
 12 13  1  0  0  0
 13 14  2  0  0  0
 14 15  1  0  0  0
 15 16  2  0  0  0
 16 17  1  0  0  0
 17 18  1  0  0  0
 18 19  1  0  0  0
 19 20  2  0  0  0
 19 21  1  0  0  0
 21 22  2  0  0  0
 22 23  1  0  0  0
 23 24  2  0  0  0
 24 25  1  0  0  0
 25 26  2  0  0  0
 26 27  1  0  0  0
 27 28  2  0  0  0
 28 29  1  0  0  0
 29 30  1  0  0  0
 30 31  2  0  0  0
  6  2  1  0  0  0
 31  8  1  0  0  0
 29  2  1  0  0  0
 14  9  1  0  0  0
 31 15  1  0  0  0
 21 16  1  0  0  0
 30 22  1  0  0  0
 28 23  1  0  0  0
  7 32  1  0  0  0
 35 36  1  0  0  0
 18 33  1  0  0  0
M  END
> <minimizedAffinity>
3.70897

> <CNNscore>
0.3035119176

> <CNNaffinity>
7.0054311752

> <CNN_VS>
2.1262319088

> <CNNaffinity_variance>
0.1149676889

$$$$
[H]OC([H])([H])[C@@]1(O[H])C([H])([H])[C@@]2([H])O[C@]1(C([H])([H])[H])n1c3c([H])c([H])c([H])c([H])c3c3c4c(c5c6c([H])c([H])c([H])c([H])c6n2c5c31)C([H])([H])N([H])C4=O


 36 43  0  0  0  0  0  0  0  0999 V2000
    7.1231   46.9275  129.6912 C   0  0  0  0  0  0  0  0  0  0  0  0
    8.4629   46.9549  130.4207 C   0  0  0  0  0  0  0  0  0  0  0  0
    8.1858   46.0558  131.4939 O   0  0  0  0  0  0  0  0  0  0  0  0
    8.9451   46.3729  132.5634 C   0  0  0  0  0  0  0  0  0  0  0  0
    9.3727   47.8108  132.4516 C   0  0  0  0  0  0  0  0  0  0  0  0
    8.7420   48.2179  131.1313 C   0  0  0  0  0  0  0  0  0  0  0  0
    9.6779   49.0365  130.5036 O   0  0  0  0  0  0  0  0  0  0  0  0
   10.1474   45.5395  132.5100 N   0  0  0  0  0  0  0  0  0  0  0  0
   10.7883   44.9444  133.4975 C   0  0  0  0  0  0  0  0  0  0  0  0
   10.5215   44.9078  134.8471 C   0  0  0  0  0  0  0  0  0  0  0  0
   11.3740   44.1929  135.6850 C   0  0  0  0  0  0  0  0  0  0  0  0
   12.4872   43.5182  135.1769 C   0  0  0  0  0  0  0  0  0  0  0  0
   12.7604   43.5508  133.8262 C   0  0  0  0  0  0  0  0  0  0  0  0
   11.9050   44.2627  133.0178 C   0  0  0  0  0  0  0  0  0  0  0  0
   11.9104   44.4751  131.6814 C   0  0  0  0  0  0  0  0  0  0  0  0
   12.7549   44.0973  130.6396 C   0  0  0  0  0  0  0  0  0  0  0  0
   13.9664   43.2745  130.6837 C   0  0  0  0  0  0  0  0  0  0  0  0
   14.4594   43.1809  129.3467 N   0  0  0  0  0  0  0  0  0  0  0  0
   13.5741   43.9348  128.4925 C   0  0  0  0  0  0  0  0  0  0  0  0
   13.8125   43.9947  127.2765 O   0  0  0  0  0  0  0  0  0  0  0  0
   12.5337   44.4846  129.3350 C   0  0  0  0  0  0  0  0  0  0  0  0
   11.4254   45.2845  129.0327 C   0  0  0  0  0  0  0  0  0  0  0  0
   10.9117   45.8531  127.9108 C   0  0  0  0  0  0  0  0  0  0  0  0
   11.3297   45.8445  126.6009 C   0  0  0  0  0  0  0  0  0  0  0  0
   10.6008   46.5525  125.6363 C   0  0  0  0  0  0  0  0  0  0  0  0
    9.4870   47.2385  126.0224 C   0  0  0  0  0  0  0  0  0  0  0  0
    9.0730   47.2385  127.3614 C   0  0  0  0  0  0  0  0  0  0  0  0
    9.7758   46.5510  128.3042 C   0  0  0  0  0  0  0  0  0  0  0  0
    9.5628   46.4333  129.6286 N   0  0  0  0  0  0  0  0  0  0  0  0
   10.5942   45.6504  130.0760 C   0  0  0  0  0  0  0  0  0  0  0  0
   10.8334   45.2561  131.3684 C   0  0  0  0  0  0  0  0  0  0  0  0
    9.1689   49.8042  130.1192 H   0  0  0  0  0  0  0  0  0  0  0  0
   15.3281   42.6507  129.0204 H   0  0  0  0  0  0  0  0  0  0  0  0
    7.4822   48.9680  131.4848 C   0  0  0  0  0  0  0  0  0  0  0  0
    7.8940   50.1568  132.1339 O   0  0  0  0  0  0  0  0  0  0  0  0
    7.0813   50.7446  132.2550 H   0  0  0  0  0  0  0  0  0  0  0  0
  2  1  1  0  0  0
  2  3  1  0  0  0
  3  4  1  0  0  0
  4  5  1  0  0  0
  5  6  1  0  0  0
  6  7  1  0  0  0
  6 34  1  0  0  0
 34 35  1  0  0  0
  4  8  1  0  0  0
  8  9  1  0  0  0
  9 10  2  0  0  0
 10 11  1  0  0  0
 11 12  2  0  0  0
 12 13  1  0  0  0
 13 14  2  0  0  0
 14 15  1  0  0  0
 15 16  2  0  0  0
 16 17  1  0  0  0
 17 18  1  0  0  0
 18 19  1  0  0  0
 19 20  2  0  0  0
 19 21  1  0  0  0
 21 22  2  0  0  0
 22 23  1  0  0  0
 23 24  2  0  0  0
 24 25  1  0  0  0
 25 26  2  0  0  0
 26 27  1  0  0  0
 27 28  2  0  0  0
 28 29  1  0  0  0
 29 30  1  0  0  0
 30 31  2  0  0  0
  6  2  1  0  0  0
 31  8  1  0  0  0
 29  2  1  0  0  0
 14  9  1  0  0  0
 31 15  1  0  0  0
 21 16  1  0  0  0
 30 22  1  0  0  0
 28 23  1  0  0  0
  7 32  1  0  0  0
 35 36  1  0  0  0
 18 33  1  0  0  0
M  END
> <minimizedAffinity>
27.74903

> <CNNscore>
0.2856041193

> <CNNaffinity>
6.7293243408

> <CNN_VS>
1.9219228029

> <CNNaffinity_variance>
0.5751584768

$$$$
[H]OC([H])([H])[C@@]1(O[H])C([H])([H])[C@@]2([H])O[C@]1(C([H])([H])[H])n1c3c([H])c([H])c([H])c([H])c3c3c4c(c5c6c([H])c([H])c([H])c([H])c6n2c5c31)C([H])([H])N([H])C4=O


 36 43  0  0  0  0  0  0  0  0999 V2000
    6.4751   45.9623  129.6099 C   0  0  0  0  0  0  0  0  0  0  0  0
    7.8039   46.6442  129.9218 C   0  0  0  0  0  0  0  0  0  0  0  0
    7.3822   47.5797  130.9138 O   0  0  0  0  0  0  0  0  0  0  0  0
    8.1913   48.6595  130.8969 C   0  0  0  0  0  0  0  0  0  0  0  0
    8.8599   48.7497  129.5525 C   0  0  0  0  0  0  0  0  0  0  0  0
    8.3010   47.5259  128.8478 C   0  0  0  0  0  0  0  0  0  0  0  0
    9.3603   46.9976  128.1138 O   0  0  0  0  0  0  0  0  0  0  0  0
    9.2314   48.4437  131.9041 N   0  0  0  0  0  0  0  0  0  0  0  0
    9.7659   49.3103  132.7429 C   0  0  0  0  0  0  0  0  0  0  0  0
    9.5049   50.6472  132.9390 C   0  0  0  0  0  0  0  0  0  0  0  0
   10.2263   51.3413  133.9075 C   0  0  0  0  0  0  0  0  0  0  0  0
   11.2032   50.7027  134.6758 C   0  0  0  0  0  0  0  0  0  0  0  0
   11.4698   49.3638  134.4845 C   0  0  0  0  0  0  0  0  0  0  0  0
   10.7453   48.6986  133.5229 C   0  0  0  0  0  0  0  0  0  0  0  0
   10.7792   47.4094  133.1133 C   0  0  0  0  0  0  0  0  0  0  0  0
   11.5395   46.2963  133.4657 C   0  0  0  0  0  0  0  0  0  0  0  0
   12.5910   46.1781  134.4790 C   0  0  0  0  0  0  0  0  0  0  0  0
   13.0524   44.8270  134.4500 N   0  0  0  0  0  0  0  0  0  0  0  0
   12.3054   44.1237  133.4355 C   0  0  0  0  0  0  0  0  0  0  0  0
   12.5433   42.9232  133.2323 O   0  0  0  0  0  0  0  0  0  0  0  0
   11.3806   45.0718  132.8521 C   0  0  0  0  0  0  0  0  0  0  0  0
   10.4251   44.9280  131.8391 C   0  0  0  0  0  0  0  0  0  0  0  0
   10.0106   43.9206  131.0274 C   0  0  0  0  0  0  0  0  0  0  0  0
   10.4129   42.6113  130.9070 C   0  0  0  0  0  0  0  0  0  0  0  0
    9.8114   41.7871  129.9469 C   0  0  0  0  0  0  0  0  0  0  0  0
    8.8350   42.3068  129.1489 C   0  0  0  0  0  0  0  0  0  0  0  0
    8.4353   43.6434  129.2827 C   0  0  0  0  0  0  0  0  0  0  0  0
    9.0146   44.4501  130.2151 C   0  0  0  0  0  0  0  0  0  0  0  0
    8.7925   45.7483  130.4955 N   0  0  0  0  0  0  0  0  0  0  0  0
    9.6759   46.0405  131.5009 C   0  0  0  0  0  0  0  0  0  0  0  0
    9.8512   47.2512  132.1225 C   0  0  0  0  0  0  0  0  0  0  0  0
    8.9892   46.7485  127.2214 H   0  0  0  0  0  0  0  0  0  0  0  0
   13.8146   44.3974  135.0639 H   0  0  0  0  0  0  0  0  0  0  0  0
    7.1918   48.0277  127.9576 C   0  0  0  0  0  0  0  0  0  0  0  0
    6.9655   49.3765  128.3231 O   0  0  0  0  0  0  0  0  0  0  0  0
    6.3287   49.7801  127.6505 H   0  0  0  0  0  0  0  0  0  0  0  0
  2  1  1  0  0  0
  2  3  1  0  0  0
  3  4  1  0  0  0
  4  5  1  0  0  0
  5  6  1  0  0  0
  6  7  1  0  0  0
  6 34  1  0  0  0
 34 35  1  0  0  0
  4  8  1  0  0  0
  8  9  1  0  0  0
  9 10  2  0  0  0
 10 11  1  0  0  0
 11 12  2  0  0  0
 12 13  1  0  0  0
 13 14  2  0  0  0
 14 15  1  0  0  0
 15 16  2  0  0  0
 16 17  1  0  0  0
 17 18  1  0  0  0
 18 19  1  0  0  0
 19 20  2  0  0  0
 19 21  1  0  0  0
 21 22  2  0  0  0
 22 23  1  0  0  0
 23 24  2  0  0  0
 24 25  1  0  0  0
 25 26  2  0  0  0
 26 27  1  0  0  0
 27 28  2  0  0  0
 28 29  1  0  0  0
 29 30  1  0  0  0
 30 31  2  0  0  0
  6  2  1  0  0  0
 31  8  1  0  0  0
 29  2  1  0  0  0
 14  9  1  0  0  0
 31 15  1  0  0  0
 21 16  1  0  0  0
 30 22  1  0  0  0
 28 23  1  0  0  0
  7 32  1  0  0  0
 35 36  1  0  0  0
 18 33  1  0  0  0
M  END
> <minimizedAffinity>
13.39605

> <CNNscore>
0.2820338309

> <CNNaffinity>
6.9934220314

> <CNN_VS>
1.9723815918

> <CNNaffinity_variance>
0.1970135421

$$$$
[H]OC([H])([H])[C@@]1(O[H])C([H])([H])[C@@]2([H])O[C@]1(C([H])([H])[H])n1c3c([H])c([H])c([H])c([H])c3c3c4c(c5c6c([H])c([H])c([H])c([H])c6n2c5c31)C([H])([H])N([H])C4=O


 36 43  0  0  0  0  0  0  0  0999 V2000
    9.8854   45.7023  127.1767 C   0  0  0  0  0  0  0  0  0  0  0  0
    9.7056   45.3818  128.6575 C   0  0  0  0  0  0  0  0  0  0  0  0
   10.9972   44.8562  128.9619 O   0  0  0  0  0  0  0  0  0  0  0  0
   10.9037   43.9749  129.9795 C   0  0  0  0  0  0  0  0  0  0  0  0
    9.4916   43.4622  130.0555 C   0  0  0  0  0  0  0  0  0  0  0  0
    8.8244   44.2291  128.9269 C   0  0  0  0  0  0  0  0  0  0  0  0
    7.5595   44.5699  129.3999 O   0  0  0  0  0  0  0  0  0  0  0  0
   11.1862   44.7032  131.2175 N   0  0  0  0  0  0  0  0  0  0  0  0
   11.8755   44.3108  132.2715 C   0  0  0  0  0  0  0  0  0  0  0  0
   12.5415   43.1325  132.5201 C   0  0  0  0  0  0  0  0  0  0  0  0
   13.2011   42.9730  133.7365 C   0  0  0  0  0  0  0  0  0  0  0  0
   13.1949   43.9857  134.6994 C   0  0  0  0  0  0  0  0  0  0  0  0
   12.5296   45.1684  134.4569 C   0  0  0  0  0  0  0  0  0  0  0  0
   11.8855   45.3038  133.2491 C   0  0  0  0  0  0  0  0  0  0  0  0
   11.1633   46.3251  132.7330 C   0  0  0  0  0  0  0  0  0  0  0  0
   10.7795   47.5798  133.2019 C   0  0  0  0  0  0  0  0  0  0  0  0
   11.0893   48.2230  134.4813 C   0  0  0  0  0  0  0  0  0  0  0  0
   10.4629   49.5062  134.4687 N   0  0  0  0  0  0  0  0  0  0  0  0
    9.7747   49.6528  133.2090 C   0  0  0  0  0  0  0  0  0  0  0  0
    9.1523   50.7009  132.9782 O   0  0  0  0  0  0  0  0  0  0  0  0
    9.9977   48.4368  132.4568 C   0  0  0  0  0  0  0  0  0  0  0  0
    9.5683   48.0455  131.1831 C   0  0  0  0  0  0  0  0  0  0  0  0
    8.8045   48.5931  130.2020 C   0  0  0  0  0  0  0  0  0  0  0  0
    8.1420   49.7948  130.1144 C   0  0  0  0  0  0  0  0  0  0  0  0
    7.3956   50.0925  128.9668 C   0  0  0  0  0  0  0  0  0  0  0  0
    7.3431   49.1768  127.9573 C   0  0  0  0  0  0  0  0  0  0  0  0
    8.0233   47.9558  128.0606 C   0  0  0  0  0  0  0  0  0  0  0  0
    8.7522   47.6603  129.1728 C   0  0  0  0  0  0  0  0  0  0  0  0
    9.4590   46.5552  129.4769 N   0  0  0  0  0  0  0  0  0  0  0  0
    9.9584   46.7985  130.7293 C   0  0  0  0  0  0  0  0  0  0  0  0
   10.7352   45.9593  131.4877 C   0  0  0  0  0  0  0  0  0  0  0  0
    6.9226   44.4007  128.6503 H   0  0  0  0  0  0  0  0  0  0  0  0
   10.4896   50.2393  135.2460 H   0  0  0  0  0  0  0  0  0  0  0  0
    8.7533   43.2759  127.7603 C   0  0  0  0  0  0  0  0  0  0  0  0
    9.8949   42.4439  127.8540 O   0  0  0  0  0  0  0  0  0  0  0  0
    9.8010   41.7060  127.1704 H   0  0  0  0  0  0  0  0  0  0  0  0
  2  1  1  0  0  0
  2  3  1  0  0  0
  3  4  1  0  0  0
  4  5  1  0  0  0
  5  6  1  0  0  0
  6  7  1  0  0  0
  6 34  1  0  0  0
 34 35  1  0  0  0
  4  8  1  0  0  0
  8  9  1  0  0  0
  9 10  2  0  0  0
 10 11  1  0  0  0
 11 12  2  0  0  0
 12 13  1  0  0  0
 13 14  2  0  0  0
 14 15  1  0  0  0
 15 16  2  0  0  0
 16 17  1  0  0  0
 17 18  1  0  0  0
 18 19  1  0  0  0
 19 20  2  0  0  0
 19 21  1  0  0  0
 21 22  2  0  0  0
 22 23  1  0  0  0
 23 24  2  0  0  0
 24 25  1  0  0  0
 25 26  2  0  0  0
 26 27  1  0  0  0
 27 28  2  0  0  0
 28 29  1  0  0  0
 29 30  1  0  0  0
 30 31  2  0  0  0
  6  2  1  0  0  0
 31  8  1  0  0  0
 29  2  1  0  0  0
 14  9  1  0  0  0
 31 15  1  0  0  0
 21 16  1  0  0  0
 30 22  1  0  0  0
 28 23  1  0  0  0
  7 32  1  0  0  0
 35 36  1  0  0  0
 18 33  1  0  0  0
M  END
> <minimizedAffinity>
3.37006

> <CNNscore>
0.2724118233

> <CNNaffinity>
6.9902563095

> <CNN_VS>
1.9042284489

> <CNNaffinity_variance>
0.3149202466

$$$$
[H]OC([H])([H])[C@@]1(O[H])C([H])([H])[C@@]2([H])O[C@]1(C([H])([H])[H])n1c3c([H])c([H])c([H])c([H])c3c3c4c(c5c6c([H])c([H])c([H])c([H])c6n2c5c31)C([H])([H])N([H])C4=O


 36 43  0  0  0  0  0  0  0  0999 V2000
   11.6238   44.0412  135.0453 C   0  0  0  0  0  0  0  0  0  0  0  0
   10.4950   44.7308  134.2849 C   0  0  0  0  0  0  0  0  0  0  0  0
   10.9581   46.0805  134.3125 O   0  0  0  0  0  0  0  0  0  0  0  0
    9.9070   46.9253  134.2637 C   0  0  0  0  0  0  0  0  0  0  0  0
    8.6758   46.2035  134.7388 C   0  0  0  0  0  0  0  0  0  0  0  0
    9.2246   44.8177  135.0307 C   0  0  0  0  0  0  0  0  0  0  0  0
    8.2437   43.9265  134.6022 O   0  0  0  0  0  0  0  0  0  0  0  0
    9.7027   47.2901  132.8608 N   0  0  0  0  0  0  0  0  0  0  0  0
    9.3799   48.4614  132.3472 C   0  0  0  0  0  0  0  0  0  0  0  0
    9.1592   49.6769  132.9536 C   0  0  0  0  0  0  0  0  0  0  0  0
    8.8258   50.7750  132.1642 C   0  0  0  0  0  0  0  0  0  0  0  0
    8.7134   50.6589  130.7762 C   0  0  0  0  0  0  0  0  0  0  0  0
    8.9330   49.4444  130.1623 C   0  0  0  0  0  0  0  0  0  0  0  0
    9.2611   48.3740  130.9615 C   0  0  0  0  0  0  0  0  0  0  0  0
    9.5293   47.0830  130.6574 C   0  0  0  0  0  0  0  0  0  0  0  0
    9.5573   46.3477  129.4743 C   0  0  0  0  0  0  0  0  0  0  0  0
    9.3092   46.7953  128.1015 C   0  0  0  0  0  0  0  0  0  0  0  0
    9.4661   45.6570  127.2537 N   0  0  0  0  0  0  0  0  0  0  0  0
    9.7995   44.5259  128.0851 C   0  0  0  0  0  0  0  0  0  0  0  0
    9.9811   43.4187  127.5557 O   0  0  0  0  0  0  0  0  0  0  0  0
    9.8451   44.9995  129.4519 C   0  0  0  0  0  0  0  0  0  0  0  0
   10.1215   44.3343  130.6522 C   0  0  0  0  0  0  0  0  0  0  0  0
   10.4207   43.0589  131.0123 C   0  0  0  0  0  0  0  0  0  0  0  0
   10.5603   41.9044  130.2786 C   0  0  0  0  0  0  0  0  0  0  0  0
   10.8566   40.7005  130.9310 C   0  0  0  0  0  0  0  0  0  0  0  0
   10.9997   40.7022  132.2873 C   0  0  0  0  0  0  0  0  0  0  0  0
   10.8543   41.8867  133.0223 C   0  0  0  0  0  0  0  0  0  0  0  0
   10.5679   43.0612  132.3945 C   0  0  0  0  0  0  0  0  0  0  0  0
   10.3752   44.2920  132.9056 N   0  0  0  0  0  0  0  0  0  0  0  0
   10.0925   45.0768  131.8189 C   0  0  0  0  0  0  0  0  0  0  0  0
    9.8015   46.4178  131.8199 C   0  0  0  0  0  0  0  0  0  0  0  0
    8.1732   43.2236  135.3073 H   0  0  0  0  0  0  0  0  0  0  0  0
    9.3590   45.6309  126.1906 H   0  0  0  0  0  0  0  0  0  0  0  0
    9.4300   44.7566  136.5235 C   0  0  0  0  0  0  0  0  0  0  0  0
   10.7687   45.1525  136.7591 O   0  0  0  0  0  0  0  0  0  0  0  0
   10.8927   45.2580  137.7562 H   0  0  0  0  0  0  0  0  0  0  0  0
  2  1  1  0  0  0
  2  3  1  0  0  0
  3  4  1  0  0  0
  4  5  1  0  0  0
  5  6  1  0  0  0
  6  7  1  0  0  0
  6 34  1  0  0  0
 34 35  1  0  0  0
  4  8  1  0  0  0
  8  9  1  0  0  0
  9 10  2  0  0  0
 10 11  1  0  0  0
 11 12  2  0  0  0
 12 13  1  0  0  0
 13 14  2  0  0  0
 14 15  1  0  0  0
 15 16  2  0  0  0
 16 17  1  0  0  0
 17 18  1  0  0  0
 18 19  1  0  0  0
 19 20  2  0  0  0
 19 21  1  0  0  0
 21 22  2  0  0  0
 22 23  1  0  0  0
 23 24  2  0  0  0
 24 25  1  0  0  0
 25 26  2  0  0  0
 26 27  1  0  0  0
 27 28  2  0  0  0
 28 29  1  0  0  0
 29 30  1  0  0  0
 30 31  2  0  0  0
  6  2  1  0  0  0
 31  8  1  0  0  0
 29  2  1  0  0  0
 14  9  1  0  0  0
 31 15  1  0  0  0
 21 16  1  0  0  0
 30 22  1  0  0  0
 28 23  1  0  0  0
  7 32  1  0  0  0
 35 36  1  0  0  0
 18 33  1  0  0  0
M  END
> <minimizedAffinity>
12.69205

> <CNNscore>
0.2601497471

> <CNNaffinity>
6.9038672447

> <CNN_VS>
1.7960393429

> <CNNaffinity_variance>
0.2310698926

$$$$
[H]c1nc2c(nc([H])c(=O)n2[H])c(Oc2c([H])c([H])c(N([H])C(=O)N([H])c3c([H])c(C(F)(F)F)nn3-c3c([H])c([H])c(C([H])([H])[H])c([H])c3[H])c3c([H])c([H])c([H])c([H])c23)c1[H]


 45 50  0  0  0  0  0  0  0  0999 V2000
    9.9362   44.0490  129.0483 C   0  0  0  0  0  0  0  0  0  0  0  0
    9.6354   43.8298  127.7194 C   0  0  0  0  0  0  0  0  0  0  0  0
    9.6036   42.5899  127.1733 C   0  0  0  0  0  0  0  0  0  0  0  0
    9.8845   41.4457  127.9679 C   0  0  0  0  0  0  0  0  0  0  0  0
   10.1847   41.6602  129.2878 C   0  0  0  0  0  0  0  0  0  0  0  0
   10.4889   40.5750  130.1291 C   0  0  0  0  0  0  0  0  0  0  0  0
   10.8083   40.8028  131.4470 C   0  0  0  0  0  0  0  0  0  0  0  0
   10.8428   42.0714  131.9940 C   0  0  0  0  0  0  0  0  0  0  0  0
   10.5403   43.1255  131.1763 C   0  0  0  0  0  0  0  0  0  0  0  0
   10.2190   42.9096  129.8380 C   0  0  0  0  0  0  0  0  0  0  0  0
    9.6651   46.6323  131.6509 N   0  0  0  0  0  0  0  0  0  0  0  0
    9.5310   46.4426  130.2138 C   0  0  0  0  0  0  0  0  0  0  0  0
    9.1756   47.5470  129.6387 O   0  0  0  0  0  0  0  0  0  0  0  0
    9.7330   45.2512  129.6351 N   0  0  0  0  0  0  0  0  0  0  0  0
    9.9360   45.7367  132.1994 H   0  0  0  0  0  0  0  0  0  0  0  0
    9.4238   45.8041  128.4116 H   0  0  0  0  0  0  0  0  0  0  0  0
   10.0813   47.8529  133.6866 N   0  0  0  0  0  0  0  0  0  0  0  0
   10.1366   49.1049  134.0418 N   0  0  0  0  0  0  0  0  0  0  0  0
    9.7589   49.9285  133.0421 C   0  0  0  0  0  0  0  0  0  0  0  0
    9.4412   49.1332  131.9650 C   0  0  0  0  0  0  0  0  0  0  0  0
    9.6440   47.8335  132.3491 C   0  0  0  0  0  0  0  0  0  0  0  0
   11.1711   42.9862  136.5696 C   0  0  0  0  0  0  0  0  0  0  0  0
   10.8396   44.2327  135.7896 C   0  0  0  0  0  0  0  0  0  0  0  0
    9.9739   45.1593  136.3314 C   0  0  0  0  0  0  0  0  0  0  0  0
    9.6989   46.3544  135.6362 C   0  0  0  0  0  0  0  0  0  0  0  0
   10.2474   46.6579  134.4357 C   0  0  0  0  0  0  0  0  0  0  0  0
   11.1355   45.6852  133.8879 C   0  0  0  0  0  0  0  0  0  0  0  0
   11.4087   44.5167  134.5618 C   0  0  0  0  0  0  0  0  0  0  0  0
    9.6832   51.4257  133.0816 C   0  0  0  0  0  0  0  0  0  0  0  0
    8.7656   51.7750  134.0809 F   0  0  0  0  0  0  0  0  0  0  0  0
   10.8626   51.9941  133.4428 F   0  0  0  0  0  0  0  0  0  0  0  0
    9.1662   51.9596  131.9244 F   0  0  0  0  0  0  0  0  0  0  0  0
    9.8207   40.2745  127.3458 O   0  0  0  0  0  0  0  0  0  0  0  0
    9.9422   39.6330  126.1922 C   0  0  0  0  0  0  0  0  0  0  0  0
    8.9545   39.5578  125.2077 C   0  0  0  0  0  0  0  0  0  0  0  0
    9.2652   38.8633  124.0580 C   0  0  0  0  0  0  0  0  0  0  0  0
   10.4627   38.2776  123.8792 N   0  0  0  0  0  0  0  0  0  0  0  0
   11.4223   38.3234  124.7944 C   0  0  0  0  0  0  0  0  0  0  0  0
   12.6331   37.7392  124.6016 N   0  0  0  0  0  0  0  0  0  0  0  0
   13.6310   37.7783  125.4949 C   0  0  0  0  0  0  0  0  0  0  0  0
   14.7309   37.2281  125.2765 O   0  0  0  0  0  0  0  0  0  0  0  0
   13.3658   38.4575  126.6544 C   0  0  0  0  0  0  0  0  0  0  0  0
   12.1896   39.0596  126.9106 N   0  0  0  0  0  0  0  0  0  0  0  0
   11.1930   38.9955  125.9676 C   0  0  0  0  0  0  0  0  0  0  0  0
   12.7708   37.2536  123.6923 H   0  0  0  0  0  0  0  0  0  0  0  0
 22 23  1  0  0  0
 23 24  2  0  0  0
 24 25  1  0  0  0
 25 26  2  0  0  0
 26 27  1  0  0  0
 27 28  2  0  0  0
 26 17  1  0  0  0
 17 18  1  0  0  0
 18 19  2  0  0  0
 19 20  1  0  0  0
 20 21  2  0  0  0
 21 11  1  0  0  0
 11 12  1  0  0  0
 12 13  2  0  0  0
 12 14  1  0  0  0
 14  1  1  0  0  0
  1  2  2  0  0  0
  2  3  1  0  0  0
  3  4  2  0  0  0
  4 33  1  0  0  0
 33 34  1  0  0  0
 34 35  2  0  0  0
 35 36  1  0  0  0
 36 37  2  0  0  0
 37 38  1  0  0  0
 38 39  1  0  0  0
 39 40  1  0  0  0
 40 41  2  0  0  0
 40 42  1  0  0  0
 42 43  2  0  0  0
 43 44  1  0  0  0
  4  5  1  0  0  0
  5  6  2  0  0  0
  6  7  1  0  0  0
  7  8  2  0  0  0
  8  9  1  0  0  0
  9 10  2  0  0  0
 19 29  1  0  0  0
 29 30  1  0  0  0
 29 31  1  0  0  0
 29 32  1  0  0  0
 28 23  1  0  0  0
 21 17  1  0  0  0
 10  1  1  0  0  0
 44 34  1  0  0  0
 10  5  1  0  0  0
 44 38  2  0  0  0
 11 15  1  0  0  0
 14 16  1  0  0  0
 39 45  1  0  0  0
M  END
> <minimizedAffinity>
39.89904

> <CNNscore>
0.5324943662

> <CNNaffinity>
7.8725824356

> <CNN_VS>
4.1921057701

> <CNNaffinity_variance>
1.4732383490

$$$$
[H]c1nc2c(nc([H])c(=O)n2[H])c(Oc2c([H])c([H])c(N([H])C(=O)N([H])c3c([H])c(C(F)(F)F)nn3-c3c([H])c([H])c(C([H])([H])[H])c([H])c3[H])c3c([H])c([H])c([H])c([H])c23)c1[H]


 45 50  0  0  0  0  0  0  0  0999 V2000
    7.5353   47.8788  129.4572 C   0  0  0  0  0  0  0  0  0  0  0  0
    7.1021   47.8585  128.1471 C   0  0  0  0  0  0  0  0  0  0  0  0
    6.9730   48.9843  127.4037 C   0  0  0  0  0  0  0  0  0  0  0  0
    7.2869   50.2541  127.9593 C   0  0  0  0  0  0  0  0  0  0  0  0
    7.7163   50.2776  129.2606 C   0  0  0  0  0  0  0  0  0  0  0  0
    8.0290   51.5009  129.8799 C   0  0  0  0  0  0  0  0  0  0  0  0
    8.4399   51.5153  131.1921 C   0  0  0  0  0  0  0  0  0  0  0  0
    8.5641   50.3624  131.9438 C   0  0  0  0  0  0  0  0  0  0  0  0
    8.2658   49.1725  131.3383 C   0  0  0  0  0  0  0  0  0  0  0  0
    7.8445   49.1437  130.0107 C   0  0  0  0  0  0  0  0  0  0  0  0
    7.8667   45.3834  132.1375 N   0  0  0  0  0  0  0  0  0  0  0  0
    8.2374   45.6233  130.7503 C   0  0  0  0  0  0  0  0  0  0  0  0
    8.9435   44.6404  130.2899 O   0  0  0  0  0  0  0  0  0  0  0  0
    7.8874   46.7459  130.1080 N   0  0  0  0  0  0  0  0  0  0  0  0
    7.2942   46.1831  132.5948 H   0  0  0  0  0  0  0  0  0  0  0  0
    8.5524   46.3000  128.9867 H   0  0  0  0  0  0  0  0  0  0  0  0
    8.7927   44.2287  134.0392 N   0  0  0  0  0  0  0  0  0  0  0  0
    8.6276   43.0706  134.6123 N   0  0  0  0  0  0  0  0  0  0  0  0
    7.8093   42.2688  133.8996 C   0  0  0  0  0  0  0  0  0  0  0  0
    7.4224   42.9782  132.7857 C   0  0  0  0  0  0  0  0  0  0  0  0
    8.0227   44.2077  132.8614 C   0  0  0  0  0  0  0  0  0  0  0  0
   12.4473   48.6040  134.8660 C   0  0  0  0  0  0  0  0  0  0  0  0
   11.5169   47.4306  134.6948 C   0  0  0  0  0  0  0  0  0  0  0  0
   10.3254   47.4054  135.3886 C   0  0  0  0  0  0  0  0  0  0  0  0
    9.4222   46.3406  135.1952 C   0  0  0  0  0  0  0  0  0  0  0  0
    9.6582   45.3118  134.3466 C   0  0  0  0  0  0  0  0  0  0  0  0
   10.8980   45.3514  133.6423 C   0  0  0  0  0  0  0  0  0  0  0  0
   11.7840   46.3886  133.8260 C   0  0  0  0  0  0  0  0  0  0  0  0
    7.3974   40.8665  134.2354 C   0  0  0  0  0  0  0  0  0  0  0  0
    6.8095   40.3143  133.0900 F   0  0  0  0  0  0  0  0  0  0  0  0
    8.4587   40.0720  134.5302 F   0  0  0  0  0  0  0  0  0  0  0  0
    6.4135   40.8201  135.1953 F   0  0  0  0  0  0  0  0  0  0  0  0
    7.1364   51.2968  127.1513 O   0  0  0  0  0  0  0  0  0  0  0  0
    7.3229   52.5991  126.9888 C   0  0  0  0  0  0  0  0  0  0  0  0
    7.2806   53.5498  128.0108 C   0  0  0  0  0  0  0  0  0  0  0  0
    7.5205   54.8611  127.6593 C   0  0  0  0  0  0  0  0  0  0  0  0
    7.7838   55.2236  126.3912 N   0  0  0  0  0  0  0  0  0  0  0  0
    7.8265   54.3492  125.3941 C   0  0  0  0  0  0  0  0  0  0  0  0
    8.1045   54.7216  124.1179 N   0  0  0  0  0  0  0  0  0  0  0  0
    8.1722   53.8659  123.0891 C   0  0  0  0  0  0  0  0  0  0  0  0
    8.4328   54.2509  121.9297 O   0  0  0  0  0  0  0  0  0  0  0  0
    7.9389   52.5507  123.3922 C   0  0  0  0  0  0  0  0  0  0  0  0
    7.6586   52.1126  124.6336 N   0  0  0  0  0  0  0  0  0  0  0  0
    7.5989   53.0233  125.6601 C   0  0  0  0  0  0  0  0  0  0  0  0
    8.2863   55.7337  123.9625 H   0  0  0  0  0  0  0  0  0  0  0  0
 22 23  1  0  0  0
 23 24  2  0  0  0
 24 25  1  0  0  0
 25 26  2  0  0  0
 26 27  1  0  0  0
 27 28  2  0  0  0
 26 17  1  0  0  0
 17 18  1  0  0  0
 18 19  2  0  0  0
 19 20  1  0  0  0
 20 21  2  0  0  0
 21 11  1  0  0  0
 11 12  1  0  0  0
 12 13  2  0  0  0
 12 14  1  0  0  0
 14  1  1  0  0  0
  1  2  2  0  0  0
  2  3  1  0  0  0
  3  4  2  0  0  0
  4 33  1  0  0  0
 33 34  1  0  0  0
 34 35  2  0  0  0
 35 36  1  0  0  0
 36 37  2  0  0  0
 37 38  1  0  0  0
 38 39  1  0  0  0
 39 40  1  0  0  0
 40 41  2  0  0  0
 40 42  1  0  0  0
 42 43  2  0  0  0
 43 44  1  0  0  0
  4  5  1  0  0  0
  5  6  2  0  0  0
  6  7  1  0  0  0
  7  8  2  0  0  0
  8  9  1  0  0  0
  9 10  2  0  0  0
 19 29  1  0  0  0
 29 30  1  0  0  0
 29 31  1  0  0  0
 29 32  1  0  0  0
 28 23  1  0  0  0
 21 17  1  0  0  0
 10  1  1  0  0  0
 44 34  1  0  0  0
 10  5  1  0  0  0
 44 38  2  0  0  0
 11 15  1  0  0  0
 14 16  1  0  0  0
 39 45  1  0  0  0
M  END
> <minimizedAffinity>
31.22440

> <CNNscore>
0.4817104638

> <CNNaffinity>
7.1800184250

> <CNN_VS>
3.4586899281

> <CNNaffinity_variance>
0.4146936536

$$$$
[H]c1nc2c(nc([H])c(=O)n2[H])c(Oc2c([H])c([H])c(N([H])C(=O)N([H])c3c([H])c(C(F)(F)F)nn3-c3c([H])c([H])c(C([H])([H])[H])c([H])c3[H])c3c([H])c([H])c([H])c([H])c23)c1[H]


 45 50  0  0  0  0  0  0  0  0999 V2000
    7.4274   47.5149  129.4094 C   0  0  0  0  0  0  0  0  0  0  0  0
    6.8877   47.7016  128.1531 C   0  0  0  0  0  0  0  0  0  0  0  0
    6.8859   48.9058  127.5313 C   0  0  0  0  0  0  0  0  0  0  0  0
    7.4531   50.0443  128.1650 C   0  0  0  0  0  0  0  0  0  0  0  0
    7.9888   49.8623  129.4133 C   0  0  0  0  0  0  0  0  0  0  0  0
    8.5524   50.9487  130.1060 C   0  0  0  0  0  0  0  0  0  0  0  0
    9.0693   50.7595  131.3661 C   0  0  0  0  0  0  0  0  0  0  0  0
    9.0625   49.5286  131.9942 C   0  0  0  0  0  0  0  0  0  0  0  0
    8.5198   48.4713  131.3167 C   0  0  0  0  0  0  0  0  0  0  0  0
    7.9889   48.6496  130.0411 C   0  0  0  0  0  0  0  0  0  0  0  0
    8.1777   44.8397  131.8179 N   0  0  0  0  0  0  0  0  0  0  0  0
    7.8487   45.0529  130.4160 C   0  0  0  0  0  0  0  0  0  0  0  0
    7.8272   43.9275  129.7759 O   0  0  0  0  0  0  0  0  0  0  0  0
    7.6392   46.2784  129.9164 N   0  0  0  0  0  0  0  0  0  0  0  0
    8.2388   45.7473  132.4087 H   0  0  0  0  0  0  0  0  0  0  0  0
    7.4373   45.7253  128.6708 H   0  0  0  0  0  0  0  0  0  0  0  0
    9.5213   43.0444  132.7005 N   0  0  0  0  0  0  0  0  0  0  0  0
    9.3368   42.0326  133.4999 N   0  0  0  0  0  0  0  0  0  0  0  0
    8.0382   41.8869  133.8356 C   0  0  0  0  0  0  0  0  0  0  0  0
    7.3440   42.8902  133.1990 C   0  0  0  0  0  0  0  0  0  0  0  0
    8.2574   43.6268  132.4911 C   0  0  0  0  0  0  0  0  0  0  0  0
   13.9276   44.8820  129.4770 C   0  0  0  0  0  0  0  0  0  0  0  0
   12.8048   44.3512  130.3312 C   0  0  0  0  0  0  0  0  0  0  0  0
   12.8020   44.6151  131.6847 C   0  0  0  0  0  0  0  0  0  0  0  0
   11.7295   44.1713  132.4847 C   0  0  0  0  0  0  0  0  0  0  0  0
   10.6722   43.4824  131.9931 C   0  0  0  0  0  0  0  0  0  0  0  0
   10.6952   43.2134  130.5925 C   0  0  0  0  0  0  0  0  0  0  0  0
   11.7389   43.6445  129.8056 C   0  0  0  0  0  0  0  0  0  0  0  0
    7.4445   40.8334  134.7224 C   0  0  0  0  0  0  0  0  0  0  0  0
    6.8353   41.4858  135.8022 F   0  0  0  0  0  0  0  0  0  0  0  0
    6.4581   40.1331  134.1049 F   0  0  0  0  0  0  0  0  0  0  0  0
    8.3983   40.0224  135.2915 F   0  0  0  0  0  0  0  0  0  0  0  0
    7.4110   51.1771  127.4739 O   0  0  0  0  0  0  0  0  0  0  0  0
    7.2811   52.4952  127.5279 C   0  0  0  0  0  0  0  0  0  0  0  0
    6.8624   53.2152  128.6490 C   0  0  0  0  0  0  0  0  0  0  0  0
    6.8067   54.5875  128.5293 C   0  0  0  0  0  0  0  0  0  0  0  0
    7.1369   55.2188  127.3885 N   0  0  0  0  0  0  0  0  0  0  0  0
    7.5332   54.5675  126.3025 C   0  0  0  0  0  0  0  0  0  0  0  0
    7.8761   55.2129  125.1578 N   0  0  0  0  0  0  0  0  0  0  0  0
    8.2958   54.5909  124.0477 C   0  0  0  0  0  0  0  0  0  0  0  0
    8.6031   55.2238  123.0156 O   0  0  0  0  0  0  0  0  0  0  0  0
    8.3653   53.2249  124.1208 C   0  0  0  0  0  0  0  0  0  0  0  0
    8.0416   52.5222  125.2221 N   0  0  0  0  0  0  0  0  0  0  0  0
    7.6158   53.1991  126.3389 C   0  0  0  0  0  0  0  0  0  0  0  0
    7.8143   56.2509  125.1778 H   0  0  0  0  0  0  0  0  0  0  0  0
 22 23  1  0  0  0
 23 24  2  0  0  0
 24 25  1  0  0  0
 25 26  2  0  0  0
 26 27  1  0  0  0
 27 28  2  0  0  0
 26 17  1  0  0  0
 17 18  1  0  0  0
 18 19  2  0  0  0
 19 20  1  0  0  0
 20 21  2  0  0  0
 21 11  1  0  0  0
 11 12  1  0  0  0
 12 13  2  0  0  0
 12 14  1  0  0  0
 14  1  1  0  0  0
  1  2  2  0  0  0
  2  3  1  0  0  0
  3  4  2  0  0  0
  4 33  1  0  0  0
 33 34  1  0  0  0
 34 35  2  0  0  0
 35 36  1  0  0  0
 36 37  2  0  0  0
 37 38  1  0  0  0
 38 39  1  0  0  0
 39 40  1  0  0  0
 40 41  2  0  0  0
 40 42  1  0  0  0
 42 43  2  0  0  0
 43 44  1  0  0  0
  4  5  1  0  0  0
  5  6  2  0  0  0
  6  7  1  0  0  0
  7  8  2  0  0  0
  8  9  1  0  0  0
  9 10  2  0  0  0
 19 29  1  0  0  0
 29 30  1  0  0  0
 29 31  1  0  0  0
 29 32  1  0  0  0
 28 23  1  0  0  0
 21 17  1  0  0  0
 10  1  1  0  0  0
 44 34  1  0  0  0
 10  5  1  0  0  0
 44 38  2  0  0  0
 11 15  1  0  0  0
 14 16  1  0  0  0
 39 45  1  0  0  0
M  END
> <minimizedAffinity>
21.06736

> <CNNscore>
0.4538950026

> <CNNaffinity>
7.5019583702

> <CNN_VS>
3.4051012993

> <CNNaffinity_variance>
0.3847103119

$$$$
[H]c1nc2c(nc([H])c(=O)n2[H])c(Oc2c([H])c([H])c(N([H])C(=O)N([H])c3c([H])c(C(F)(F)F)nn3-c3c([H])c([H])c(C([H])([H])[H])c([H])c3[H])c3c([H])c([H])c([H])c([H])c23)c1[H]


 45 50  0  0  0  0  0  0  0  0999 V2000
    6.8524   47.8599  129.2510 C   0  0  0  0  0  0  0  0  0  0  0  0
    5.6722   47.5780  128.5935 C   0  0  0  0  0  0  0  0  0  0  0  0
    4.7128   48.5118  128.3837 C   0  0  0  0  0  0  0  0  0  0  0  0
    4.8923   49.8446  128.8431 C   0  0  0  0  0  0  0  0  0  0  0  0
    6.0628   50.1274  129.4975 C   0  0  0  0  0  0  0  0  0  0  0  0
    6.3005   51.4217  129.9936 C   0  0  0  0  0  0  0  0  0  0  0  0
    7.4695   51.6899  130.6662 C   0  0  0  0  0  0  0  0  0  0  0  0
    8.4404   50.7298  130.8795 C   0  0  0  0  0  0  0  0  0  0  0  0
    8.2107   49.4729  130.3908 C   0  0  0  0  0  0  0  0  0  0  0  0
    7.0289   49.1862  129.7110 C   0  0  0  0  0  0  0  0  0  0  0  0
   10.2933   46.5808  129.4622 N   0  0  0  0  0  0  0  0  0  0  0  0
    8.9243   46.1396  129.2382 C   0  0  0  0  0  0  0  0  0  0  0  0
    8.8861   44.8646  129.0157 O   0  0  0  0  0  0  0  0  0  0  0  0
    7.8942   46.9965  129.2449 N   0  0  0  0  0  0  0  0  0  0  0  0
   10.4006   47.6471  129.6293 H   0  0  0  0  0  0  0  0  0  0  0  0
    7.0384   45.9546  128.9616 H   0  0  0  0  0  0  0  0  0  0  0  0
   11.4591   44.8976  130.7328 N   0  0  0  0  0  0  0  0  0  0  0  0
   12.5148   44.1526  130.5672 N   0  0  0  0  0  0  0  0  0  0  0  0
   13.1918   44.4814  129.4474 C   0  0  0  0  0  0  0  0  0  0  0  0
   12.5073   45.5172  128.8539 C   0  0  0  0  0  0  0  0  0  0  0  0
   11.4179   45.7847  129.6411 C   0  0  0  0  0  0  0  0  0  0  0  0
    7.6258   45.7141  134.9545 C   0  0  0  0  0  0  0  0  0  0  0  0
    8.6714   45.4957  133.8909 C   0  0  0  0  0  0  0  0  0  0  0  0
    8.9579   44.2116  133.4778 C   0  0  0  0  0  0  0  0  0  0  0  0
    9.8938   43.9981  132.4455 C   0  0  0  0  0  0  0  0  0  0  0  0
   10.5475   45.0037  131.8165 C   0  0  0  0  0  0  0  0  0  0  0  0
   10.2432   46.3245  132.2611 C   0  0  0  0  0  0  0  0  0  0  0  0
    9.3299   46.5399  133.2681 C   0  0  0  0  0  0  0  0  0  0  0  0
   14.4557   43.8564  128.9365 C   0  0  0  0  0  0  0  0  0  0  0  0
   15.4326   44.8594  128.8894 F   0  0  0  0  0  0  0  0  0  0  0  0
   14.9384   42.9045  129.7764 F   0  0  0  0  0  0  0  0  0  0  0  0
   14.3399   43.4141  127.6394 F   0  0  0  0  0  0  0  0  0  0  0  0
    3.9010   50.6888  128.5835 O   0  0  0  0  0  0  0  0  0  0  0  0
    2.8006   50.9107  127.8786 C   0  0  0  0  0  0  0  0  0  0  0  0
    1.6349   50.1446  127.9476 C   0  0  0  0  0  0  0  0  0  0  0  0
    0.5775   50.5371  127.1549 C   0  0  0  0  0  0  0  0  0  0  0  0
    0.6515   51.6081  126.3447 N   0  0  0  0  0  0  0  0  0  0  0  0
    1.7437   52.3554  126.2491 C   0  0  0  0  0  0  0  0  0  0  0  0
    1.8067   53.4423  125.4371 N   0  0  0  0  0  0  0  0  0  0  0  0
    2.8854   54.2294  125.3265 C   0  0  0  0  0  0  0  0  0  0  0  0
    2.9004   55.2216  124.5679 O   0  0  0  0  0  0  0  0  0  0  0  0
    3.9619   53.8757  126.0961 C   0  0  0  0  0  0  0  0  0  0  0  0
    3.9679   52.8128  126.9219 N   0  0  0  0  0  0  0  0  0  0  0  0
    2.8409   52.0320  127.0054 C   0  0  0  0  0  0  0  0  0  0  0  0
    0.9478   53.6614  124.8931 H   0  0  0  0  0  0  0  0  0  0  0  0
 22 23  1  0  0  0
 23 24  2  0  0  0
 24 25  1  0  0  0
 25 26  2  0  0  0
 26 27  1  0  0  0
 27 28  2  0  0  0
 26 17  1  0  0  0
 17 18  1  0  0  0
 18 19  2  0  0  0
 19 20  1  0  0  0
 20 21  2  0  0  0
 21 11  1  0  0  0
 11 12  1  0  0  0
 12 13  2  0  0  0
 12 14  1  0  0  0
 14  1  1  0  0  0
  1  2  2  0  0  0
  2  3  1  0  0  0
  3  4  2  0  0  0
  4 33  1  0  0  0
 33 34  1  0  0  0
 34 35  2  0  0  0
 35 36  1  0  0  0
 36 37  2  0  0  0
 37 38  1  0  0  0
 38 39  1  0  0  0
 39 40  1  0  0  0
 40 41  2  0  0  0
 40 42  1  0  0  0
 42 43  2  0  0  0
 43 44  1  0  0  0
  4  5  1  0  0  0
  5  6  2  0  0  0
  6  7  1  0  0  0
  7  8  2  0  0  0
  8  9  1  0  0  0
  9 10  2  0  0  0
 19 29  1  0  0  0
 29 30  1  0  0  0
 29 31  1  0  0  0
 29 32  1  0  0  0
 28 23  1  0  0  0
 21 17  1  0  0  0
 10  1  1  0  0  0
 44 34  1  0  0  0
 10  5  1  0  0  0
 44 38  2  0  0  0
 11 15  1  0  0  0
 14 16  1  0  0  0
 39 45  1  0  0  0
M  END
> <minimizedAffinity>
22.02725

> <CNNscore>
0.4443383515

> <CNNaffinity>
7.5749063492

> <CNN_VS>
3.3658213615

> <CNNaffinity_variance>
0.4742380977

$$$$
[H]c1nc2c(nc([H])c(=O)n2[H])c(Oc2c([H])c([H])c(N([H])C(=O)N([H])c3c([H])c(C(F)(F)F)nn3-c3c([H])c([H])c(C([H])([H])[H])c([H])c3[H])c3c([H])c([H])c([H])c([H])c23)c1[H]


 45 50  0  0  0  0  0  0  0  0999 V2000
    7.7889   48.0598  130.1331 C   0  0  0  0  0  0  0  0  0  0  0  0
    7.2144   47.9355  128.8844 C   0  0  0  0  0  0  0  0  0  0  0  0
    6.9658   49.0021  128.0862 C   0  0  0  0  0  0  0  0  0  0  0  0
    7.2958   50.3158  128.5161 C   0  0  0  0  0  0  0  0  0  0  0  0
    7.8654   50.4426  129.7562 C   0  0  0  0  0  0  0  0  0  0  0  0
    8.2029   51.7144  130.2525 C   0  0  0  0  0  0  0  0  0  0  0  0
    8.7555   51.8324  131.5061 C   0  0  0  0  0  0  0  0  0  0  0  0
    9.0012   50.7392  132.3150 C   0  0  0  0  0  0  0  0  0  0  0  0
    8.6784   49.5020  131.8285 C   0  0  0  0  0  0  0  0  0  0  0  0
    8.1141   49.3683  130.5618 C   0  0  0  0  0  0  0  0  0  0  0  0
    9.8969   45.9863  132.3189 N   0  0  0  0  0  0  0  0  0  0  0  0
    8.7028   45.9200  131.4889 C   0  0  0  0  0  0  0  0  0  0  0  0
    8.2099   44.7226  131.4931 O   0  0  0  0  0  0  0  0  0  0  0  0
    8.2490   46.9854  130.8149 N   0  0  0  0  0  0  0  0  0  0  0  0
   10.3773   46.9586  132.3389 H   0  0  0  0  0  0  0  0  0  0  0  0
    7.2287   46.2142  130.3024 H   0  0  0  0  0  0  0  0  0  0  0  0
   11.3457   44.1042  132.7260 N   0  0  0  0  0  0  0  0  0  0  0  0
   11.7522   43.4338  133.7663 N   0  0  0  0  0  0  0  0  0  0  0  0
   11.1185   43.8204  134.8929 C   0  0  0  0  0  0  0  0  0  0  0  0
   10.2411   44.8192  134.5375 C   0  0  0  0  0  0  0  0  0  0  0  0
   10.3759   45.0135  133.1877 C   0  0  0  0  0  0  0  0  0  0  0  0
   12.0334   43.5015  127.0385 C   0  0  0  0  0  0  0  0  0  0  0  0
   11.8814   43.6074  128.5345 C   0  0  0  0  0  0  0  0  0  0  0  0
   12.8688   44.2254  129.2724 C   0  0  0  0  0  0  0  0  0  0  0  0
   12.7127   44.3795  130.6650 C   0  0  0  0  0  0  0  0  0  0  0  0
   11.6229   43.9462  131.3422 C   0  0  0  0  0  0  0  0  0  0  0  0
   10.6148   43.3041  130.5636 C   0  0  0  0  0  0  0  0  0  0  0  0
   10.7607   43.1511  129.2036 C   0  0  0  0  0  0  0  0  0  0  0  0
   11.3120   43.2714  136.2750 C   0  0  0  0  0  0  0  0  0  0  0  0
   12.6865   43.0760  136.4622 F   0  0  0  0  0  0  0  0  0  0  0  0
   10.9248   44.1469  137.2384 F   0  0  0  0  0  0  0  0  0  0  0  0
   10.7529   42.0246  136.4316 F   0  0  0  0  0  0  0  0  0  0  0  0
    7.0216   51.2944  127.6618 O   0  0  0  0  0  0  0  0  0  0  0  0
    7.0673   52.5990  127.4312 C   0  0  0  0  0  0  0  0  0  0  0  0
    6.8122   53.5913  128.3801 C   0  0  0  0  0  0  0  0  0  0  0  0
    6.9282   54.9012  127.9660 C   0  0  0  0  0  0  0  0  0  0  0  0
    7.2700   55.2240  126.7059 N   0  0  0  0  0  0  0  0  0  0  0  0
    7.5139   54.3086  125.7767 C   0  0  0  0  0  0  0  0  0  0  0  0
    7.8698   54.6426  124.5093 N   0  0  0  0  0  0  0  0  0  0  0  0
    8.1393   53.7472  123.5497 C   0  0  0  0  0  0  0  0  0  0  0  0
    8.4651   54.0979  122.3960 O   0  0  0  0  0  0  0  0  0  0  0  0
    8.0352   52.4317  123.9166 C   0  0  0  0  0  0  0  0  0  0  0  0
    7.6882   52.0304  125.1537 N   0  0  0  0  0  0  0  0  0  0  0  0
    7.4202   52.9812  126.1080 C   0  0  0  0  0  0  0  0  0  0  0  0
    7.9446   55.6595  124.3045 H   0  0  0  0  0  0  0  0  0  0  0  0
 22 23  1  0  0  0
 23 24  2  0  0  0
 24 25  1  0  0  0
 25 26  2  0  0  0
 26 27  1  0  0  0
 27 28  2  0  0  0
 26 17  1  0  0  0
 17 18  1  0  0  0
 18 19  2  0  0  0
 19 20  1  0  0  0
 20 21  2  0  0  0
 21 11  1  0  0  0
 11 12  1  0  0  0
 12 13  2  0  0  0
 12 14  1  0  0  0
 14  1  1  0  0  0
  1  2  2  0  0  0
  2  3  1  0  0  0
  3  4  2  0  0  0
  4 33  1  0  0  0
 33 34  1  0  0  0
 34 35  2  0  0  0
 35 36  1  0  0  0
 36 37  2  0  0  0
 37 38  1  0  0  0
 38 39  1  0  0  0
 39 40  1  0  0  0
 40 41  2  0  0  0
 40 42  1  0  0  0
 42 43  2  0  0  0
 43 44  1  0  0  0
  4  5  1  0  0  0
  5  6  2  0  0  0
  6  7  1  0  0  0
  7  8  2  0  0  0
  8  9  1  0  0  0
  9 10  2  0  0  0
 19 29  1  0  0  0
 29 30  1  0  0  0
 29 31  1  0  0  0
 29 32  1  0  0  0
 28 23  1  0  0  0
 21 17  1  0  0  0
 10  1  1  0  0  0
 44 34  1  0  0  0
 10  5  1  0  0  0
 44 38  2  0  0  0
 11 15  1  0  0  0
 14 16  1  0  0  0
 39 45  1  0  0  0
M  END
> <minimizedAffinity>
22.15224

> <CNNscore>
0.3802010715

> <CNNaffinity>
7.4623231888

> <CNN_VS>
2.8371832371

> <CNNaffinity_variance>
0.3665740490

$$$$
[H]c1nc2c(nc([H])c(=O)n2[H])c(Oc2c([H])c([H])c(N([H])C(=O)N([H])c3c([H])c(C(F)(F)F)nn3-c3c([H])c([H])c(C([H])([H])[H])c([H])c3[H])c3c([H])c([H])c([H])c([H])c23)c1[H]


 45 50  0  0  0  0  0  0  0  0999 V2000
    7.6780   48.1344  129.1313 C   0  0  0  0  0  0  0  0  0  0  0  0
    8.5857   49.1123  128.7787 C   0  0  0  0  0  0  0  0  0  0  0  0
    8.2177   50.3910  128.5221 C   0  0  0  0  0  0  0  0  0  0  0  0
    6.8535   50.7792  128.6096 C   0  0  0  0  0  0  0  0  0  0  0  0
    5.9494   49.8100  128.9584 C   0  0  0  0  0  0  0  0  0  0  0  0
    4.5805   50.1195  129.0482 C   0  0  0  0  0  0  0  0  0  0  0  0
    3.6793   49.1351  129.3795 C   0  0  0  0  0  0  0  0  0  0  0  0
    4.0634   47.8325  129.6350 C   0  0  0  0  0  0  0  0  0  0  0  0
    5.3961   47.5342  129.5536 C   0  0  0  0  0  0  0  0  0  0  0  0
    6.3195   48.5208  129.2150 C   0  0  0  0  0  0  0  0  0  0  0  0
    9.7540   45.5671  130.7500 N   0  0  0  0  0  0  0  0  0  0  0  0
    8.4681   45.7456  130.0914 C   0  0  0  0  0  0  0  0  0  0  0  0
    7.8288   44.6214  130.0257 O   0  0  0  0  0  0  0  0  0  0  0  0
    8.0760   46.9347  129.6142 N   0  0  0  0  0  0  0  0  0  0  0  0
   10.3547   46.4678  130.8153 H   0  0  0  0  0  0  0  0  0  0  0  0
    6.9093   46.3577  129.1626 H   0  0  0  0  0  0  0  0  0  0  0  0
    9.8733   44.2797  132.7836 N   0  0  0  0  0  0  0  0  0  0  0  0
   10.2523   43.0797  133.1200 N   0  0  0  0  0  0  0  0  0  0  0  0
   10.8253   42.4255  132.0885 C   0  0  0  0  0  0  0  0  0  0  0  0
   10.8048   43.2800  131.0100 C   0  0  0  0  0  0  0  0  0  0  0  0
   10.2068   44.4407  131.4259 C   0  0  0  0  0  0  0  0  0  0  0  0
    8.0899   48.9049  135.7181 C   0  0  0  0  0  0  0  0  0  0  0  0
    8.5690   47.6681  135.0019 C   0  0  0  0  0  0  0  0  0  0  0  0
    7.6723   46.6583  134.7225 C   0  0  0  0  0  0  0  0  0  0  0  0
    8.0959   45.5213  134.0050 C   0  0  0  0  0  0  0  0  0  0  0  0
    9.3641   45.3541  133.5603 C   0  0  0  0  0  0  0  0  0  0  0  0
   10.2791   46.4056  133.8637 C   0  0  0  0  0  0  0  0  0  0  0  0
    9.8718   47.5187  134.5633 C   0  0  0  0  0  0  0  0  0  0  0  0
   11.3914   41.0368  132.0988 C   0  0  0  0  0  0  0  0  0  0  0  0
   11.0469   40.4322  130.8829 F   0  0  0  0  0  0  0  0  0  0  0  0
   12.7487   41.0318  132.1467 F   0  0  0  0  0  0  0  0  0  0  0  0
   10.8208   40.2405  133.0640 F   0  0  0  0  0  0  0  0  0  0  0  0
    6.5927   52.0545  128.3479 O   0  0  0  0  0  0  0  0  0  0  0  0
    6.8609   53.0963  127.5734 C   0  0  0  0  0  0  0  0  0  0  0  0
    8.1278   53.6543  127.3891 C   0  0  0  0  0  0  0  0  0  0  0  0
    8.2228   54.7257  126.5266 C   0  0  0  0  0  0  0  0  0  0  0  0
    7.1505   55.2230  125.8850 N   0  0  0  0  0  0  0  0  0  0  0  0
    5.9315   54.7224  126.0400 C   0  0  0  0  0  0  0  0  0  0  0  0
    4.8555   55.2229  125.3795 N   0  0  0  0  0  0  0  0  0  0  0  0
    3.6137   54.7339  125.4981 C   0  0  0  0  0  0  0  0  0  0  0  0
    2.6514   55.2238  124.8702 O   0  0  0  0  0  0  0  0  0  0  0  0
    3.4720   53.6683  126.3469 C   0  0  0  0  0  0  0  0  0  0  0  0
    4.4941   53.1226  127.0318 N   0  0  0  0  0  0  0  0  0  0  0  0
    5.7515   53.6545  126.8813 C   0  0  0  0  0  0  0  0  0  0  0  0
    5.0385   56.0221  124.7396 H   0  0  0  0  0  0  0  0  0  0  0  0
 22 23  1  0  0  0
 23 24  2  0  0  0
 24 25  1  0  0  0
 25 26  2  0  0  0
 26 27  1  0  0  0
 27 28  2  0  0  0
 26 17  1  0  0  0
 17 18  1  0  0  0
 18 19  2  0  0  0
 19 20  1  0  0  0
 20 21  2  0  0  0
 21 11  1  0  0  0
 11 12  1  0  0  0
 12 13  2  0  0  0
 12 14  1  0  0  0
 14  1  1  0  0  0
  1  2  2  0  0  0
  2  3  1  0  0  0
  3  4  2  0  0  0
  4 33  1  0  0  0
 33 34  1  0  0  0
 34 35  2  0  0  0
 35 36  1  0  0  0
 36 37  2  0  0  0
 37 38  1  0  0  0
 38 39  1  0  0  0
 39 40  1  0  0  0
 40 41  2  0  0  0
 40 42  1  0  0  0
 42 43  2  0  0  0
 43 44  1  0  0  0
  4  5  1  0  0  0
  5  6  2  0  0  0
  6  7  1  0  0  0
  7  8  2  0  0  0
  8  9  1  0  0  0
  9 10  2  0  0  0
 19 29  1  0  0  0
 29 30  1  0  0  0
 29 31  1  0  0  0
 29 32  1  0  0  0
 28 23  1  0  0  0
 21 17  1  0  0  0
 10  1  1  0  0  0
 44 34  1  0  0  0
 10  5  1  0  0  0
 44 38  2  0  0  0
 11 15  1  0  0  0
 14 16  1  0  0  0
 39 45  1  0  0  0
M  END
> <minimizedAffinity>
22.48434

> <CNNscore>
0.3680862486

> <CNNaffinity>
7.4148392677

> <CNN_VS>
2.7293002605

> <CNNaffinity_variance>
1.0102525949

$$$$
[H]c1nc2c(nc([H])c(=O)n2[H])c(Oc2c([H])c([H])c(N([H])C(=O)N([H])c3c([H])c(C(F)(F)F)nn3-c3c([H])c([H])c(C([H])([H])[H])c([H])c3[H])c3c([H])c([H])c([H])c([H])c23)c1[H]


 45 50  0  0  0  0  0  0  0  0999 V2000
    8.4274   48.2502  128.8990 C   0  0  0  0  0  0  0  0  0  0  0  0
    7.6640   48.4847  127.7735 C   0  0  0  0  0  0  0  0  0  0  0  0
    6.9874   49.6427  127.5790 C   0  0  0  0  0  0  0  0  0  0  0  0
    7.0420   50.6802  128.5487 C   0  0  0  0  0  0  0  0  0  0  0  0
    7.7985   50.4499  129.6680 C   0  0  0  0  0  0  0  0  0  0  0  0
    7.8846   51.4264  130.6764 C   0  0  0  0  0  0  0  0  0  0  0  0
    8.6302   51.1773  131.8047 C   0  0  0  0  0  0  0  0  0  0  0  0
    9.3130   49.9913  131.9965 C   0  0  0  0  0  0  0  0  0  0  0  0
    9.2337   49.0448  131.0119 C   0  0  0  0  0  0  0  0  0  0  0  0
    8.4786   49.2823  129.8654 C   0  0  0  0  0  0  0  0  0  0  0  0
   11.5616   46.3511  129.2010 N   0  0  0  0  0  0  0  0  0  0  0  0
   10.1259   46.1656  129.0477 C   0  0  0  0  0  0  0  0  0  0  0  0
    9.8340   44.9065  128.9694 O   0  0  0  0  0  0  0  0  0  0  0  0
    9.2818   47.2036  128.9740 N   0  0  0  0  0  0  0  0  0  0  0  0
   11.8789   47.3873  129.2465 H   0  0  0  0  0  0  0  0  0  0  0  0
    8.2311   46.3256  128.8212 H   0  0  0  0  0  0  0  0  0  0  0  0
   12.2938   44.4519  130.4910 N   0  0  0  0  0  0  0  0  0  0  0  0
   13.2279   43.5491  130.3945 N   0  0  0  0  0  0  0  0  0  0  0  0
   14.0686   43.8026  129.3703 C   0  0  0  0  0  0  0  0  0  0  0  0
   13.6294   44.9588  128.7670 C   0  0  0  0  0  0  0  0  0  0  0  0
   12.5169   45.3736  129.4511 C   0  0  0  0  0  0  0  0  0  0  0  0
    8.3027   45.7619  134.4328 C   0  0  0  0  0  0  0  0  0  0  0  0
    9.3761   45.3881  133.4428 C   0  0  0  0  0  0  0  0  0  0  0  0
    9.2403   44.2328  132.7023 C   0  0  0  0  0  0  0  0  0  0  0  0
   10.2099   43.9008  131.7343 C   0  0  0  0  0  0  0  0  0  0  0  0
   11.2968   44.6673  131.4791 C   0  0  0  0  0  0  0  0  0  0  0  0
   11.4239   45.8551  132.2587 C   0  0  0  0  0  0  0  0  0  0  0  0
   10.4804   46.1853  133.2049 C   0  0  0  0  0  0  0  0  0  0  0  0
   15.2644   42.9963  128.9590 C   0  0  0  0  0  0  0  0  0  0  0  0
   15.0053   42.4792  127.6830 F   0  0  0  0  0  0  0  0  0  0  0  0
   16.3828   43.7565  128.8336 F   0  0  0  0  0  0  0  0  0  0  0  0
   15.4568   41.8920  129.7559 F   0  0  0  0  0  0  0  0  0  0  0  0
    6.3530   51.7792  128.2654 O   0  0  0  0  0  0  0  0  0  0  0  0
    6.3356   52.9270  127.6025 C   0  0  0  0  0  0  0  0  0  0  0  0
    7.4369   53.7666  127.4221 C   0  0  0  0  0  0  0  0  0  0  0  0
    7.2380   54.9137  126.6837 C   0  0  0  0  0  0  0  0  0  0  0  0
    6.0408   55.2241  126.1552 N   0  0  0  0  0  0  0  0  0  0  0  0
    4.9717   54.4537  126.3108 C   0  0  0  0  0  0  0  0  0  0  0  0
    3.7688   54.7682  125.7642 N   0  0  0  0  0  0  0  0  0  0  0  0
    2.6723   54.0078  125.8861 C   0  0  0  0  0  0  0  0  0  0  0  0
    1.5849   54.3339  125.3652 O   0  0  0  0  0  0  0  0  0  0  0  0
    2.8235   52.8574  126.6139 C   0  0  0  0  0  0  0  0  0  0  0  0
    3.9854   52.4847  127.1821 N   0  0  0  0  0  0  0  0  0  0  0  0
    5.0855   53.2934  127.0327 C   0  0  0  0  0  0  0  0  0  0  0  0
    3.7298   55.6483  125.2115 H   0  0  0  0  0  0  0  0  0  0  0  0
 22 23  1  0  0  0
 23 24  2  0  0  0
 24 25  1  0  0  0
 25 26  2  0  0  0
 26 27  1  0  0  0
 27 28  2  0  0  0
 26 17  1  0  0  0
 17 18  1  0  0  0
 18 19  2  0  0  0
 19 20  1  0  0  0
 20 21  2  0  0  0
 21 11  1  0  0  0
 11 12  1  0  0  0
 12 13  2  0  0  0
 12 14  1  0  0  0
 14  1  1  0  0  0
  1  2  2  0  0  0
  2  3  1  0  0  0
  3  4  2  0  0  0
  4 33  1  0  0  0
 33 34  1  0  0  0
 34 35  2  0  0  0
 35 36  1  0  0  0
 36 37  2  0  0  0
 37 38  1  0  0  0
 38 39  1  0  0  0
 39 40  1  0  0  0
 40 41  2  0  0  0
 40 42  1  0  0  0
 42 43  2  0  0  0
 43 44  1  0  0  0
  4  5  1  0  0  0
  5  6  2  0  0  0
  6  7  1  0  0  0
  7  8  2  0  0  0
  8  9  1  0  0  0
  9 10  2  0  0  0
 19 29  1  0  0  0
 29 30  1  0  0  0
 29 31  1  0  0  0
 29 32  1  0  0  0
 28 23  1  0  0  0
 21 17  1  0  0  0
 10  1  1  0  0  0
 44 34  1  0  0  0
 10  5  1  0  0  0
 44 38  2  0  0  0
 11 15  1  0  0  0
 14 16  1  0  0  0
 39 45  1  0  0  0
M  END
> <minimizedAffinity>
26.49532

> <CNNscore>
0.3644767702

> <CNNaffinity>
7.3487687111

> <CNN_VS>
2.6784555912

> <CNNaffinity_variance>
0.1902922690

$$$$
[H]c1nc2c(nc([H])c(=O)n2[H])c(Oc2c([H])c([H])c(N([H])C(=O)N([H])c3c([H])c(C(F)(F)F)nn3-c3c([H])c([H])c(C([H])([H])[H])c([H])c3[H])c3c([H])c([H])c([H])c([H])c23)c1[H]


 45 50  0  0  0  0  0  0  0  0999 V2000
    7.0382   48.6307  129.6827 C   0  0  0  0  0  0  0  0  0  0  0  0
    6.3429   49.0075  128.5517 C   0  0  0  0  0  0  0  0  0  0  0  0
    6.3341   50.2821  128.0914 C   0  0  0  0  0  0  0  0  0  0  0  0
    7.0575   51.2985  128.7720 C   0  0  0  0  0  0  0  0  0  0  0  0
    7.7480   50.9277  129.8962 C   0  0  0  0  0  0  0  0  0  0  0  0
    8.4726   51.8849  130.6287 C   0  0  0  0  0  0  0  0  0  0  0  0
    9.1458   51.5063  131.7664 C   0  0  0  0  0  0  0  0  0  0  0  0
    9.1452   50.2048  132.2309 C   0  0  0  0  0  0  0  0  0  0  0  0
    8.4453   49.2733  131.5139 C   0  0  0  0  0  0  0  0  0  0  0  0
    7.7554   49.6439  130.3616 C   0  0  0  0  0  0  0  0  0  0  0  0
    7.9536   45.6286  131.5985 N   0  0  0  0  0  0  0  0  0  0  0  0
    7.4322   46.0399  130.3031 C   0  0  0  0  0  0  0  0  0  0  0  0
    7.2346   45.0106  129.5428 O   0  0  0  0  0  0  0  0  0  0  0  0
    7.2365   47.3293  129.9957 N   0  0  0  0  0  0  0  0  0  0  0  0
    8.1673   46.4469  132.2777 H   0  0  0  0  0  0  0  0  0  0  0  0
    6.8098   46.9550  128.7402 H   0  0  0  0  0  0  0  0  0  0  0  0
    9.2508   43.6245  131.9272 N   0  0  0  0  0  0  0  0  0  0  0  0
    9.1431   42.5361  132.6349 N   0  0  0  0  0  0  0  0  0  0  0  0
    7.9509   42.4597  133.2619 C   0  0  0  0  0  0  0  0  0  0  0  0
    7.2473   43.5937  132.9261 C   0  0  0  0  0  0  0  0  0  0  0  0
    8.0484   44.3356  132.0981 C   0  0  0  0  0  0  0  0  0  0  0  0
   13.5954   45.2540  128.5137 C   0  0  0  0  0  0  0  0  0  0  0  0
   12.4346   44.8815  129.4003 C   0  0  0  0  0  0  0  0  0  0  0  0
   11.3017   44.3335  128.8365 C   0  0  0  0  0  0  0  0  0  0  0  0
   10.2315   43.9303  129.6607 C   0  0  0  0  0  0  0  0  0  0  0  0
   10.2470   44.0511  131.0096 C   0  0  0  0  0  0  0  0  0  0  0  0
   11.4242   44.6256  131.5745 C   0  0  0  0  0  0  0  0  0  0  0  0
   12.4729   45.0206  130.7754 C   0  0  0  0  0  0  0  0  0  0  0  0
    7.4637   41.3538  134.1499 C   0  0  0  0  0  0  0  0  0  0  0  0
    6.7079   40.4795  133.3581 F   0  0  0  0  0  0  0  0  0  0  0  0
    8.4815   40.6118  134.6580 F   0  0  0  0  0  0  0  0  0  0  0  0
    6.5926   41.7976  135.1173 F   0  0  0  0  0  0  0  0  0  0  0  0
    6.9946   52.5136  128.2405 O   0  0  0  0  0  0  0  0  0  0  0  0
    7.2697   53.2697  127.1871 C   0  0  0  0  0  0  0  0  0  0  0  0
    8.5541   53.5760  126.7324 C   0  0  0  0  0  0  0  0  0  0  0  0
    8.6501   54.3620  125.6038 C   0  0  0  0  0  0  0  0  0  0  0  0
    7.5628   54.8219  124.9594 N   0  0  0  0  0  0  0  0  0  0  0  0
    6.3279   54.5560  125.3656 C   0  0  0  0  0  0  0  0  0  0  0  0
    5.2349   55.0146  124.7026 N   0  0  0  0  0  0  0  0  0  0  0  0
    3.9739   54.7537  125.0731 C   0  0  0  0  0  0  0  0  0  0  0  0
    2.9960   55.1945  124.4330 O   0  0  0  0  0  0  0  0  0  0  0  0
    3.8307   53.9762  126.1916 C   0  0  0  0  0  0  0  0  0  0  0  0
    4.8691   53.4885  126.8956 N   0  0  0  0  0  0  0  0  0  0  0  0
    6.1458   53.7799  126.4814 C   0  0  0  0  0  0  0  0  0  0  0  0
    5.4173   55.5860  123.8530 H   0  0  0  0  0  0  0  0  0  0  0  0
 22 23  1  0  0  0
 23 24  2  0  0  0
 24 25  1  0  0  0
 25 26  2  0  0  0
 26 27  1  0  0  0
 27 28  2  0  0  0
 26 17  1  0  0  0
 17 18  1  0  0  0
 18 19  2  0  0  0
 19 20  1  0  0  0
 20 21  2  0  0  0
 21 11  1  0  0  0
 11 12  1  0  0  0
 12 13  2  0  0  0
 12 14  1  0  0  0
 14  1  1  0  0  0
  1  2  2  0  0  0
  2  3  1  0  0  0
  3  4  2  0  0  0
  4 33  1  0  0  0
 33 34  1  0  0  0
 34 35  2  0  0  0
 35 36  1  0  0  0
 36 37  2  0  0  0
 37 38  1  0  0  0
 38 39  1  0  0  0
 39 40  1  0  0  0
 40 41  2  0  0  0
 40 42  1  0  0  0
 42 43  2  0  0  0
 43 44  1  0  0  0
  4  5  1  0  0  0
  5  6  2  0  0  0
  6  7  1  0  0  0
  7  8  2  0  0  0
  8  9  1  0  0  0
  9 10  2  0  0  0
 19 29  1  0  0  0
 29 30  1  0  0  0
 29 31  1  0  0  0
 29 32  1  0  0  0
 28 23  1  0  0  0
 21 17  1  0  0  0
 10  1  1  0  0  0
 44 34  1  0  0  0
 10  5  1  0  0  0
 44 38  2  0  0  0
 11 15  1  0  0  0
 14 16  1  0  0  0
 39 45  1  0  0  0
M  END
> <minimizedAffinity>
23.08022

> <CNNscore>
0.3503108919

> <CNNaffinity>
7.3218255043

> <CNN_VS>
2.5649151802

> <CNNaffinity_variance>
0.6747028232

$$$$
[H]c1nc2c(nc([H])c(=O)n2[H])c(Oc2c([H])c([H])c(N([H])C(=O)N([H])c3c([H])c(C(F)(F)F)nn3-c3c([H])c([H])c(C([H])([H])[H])c([H])c3[H])c3c([H])c([H])c([H])c([H])c23)c1[H]


 45 50  0  0  0  0  0  0  0  0999 V2000
    8.0306   48.1822  128.9738 C   0  0  0  0  0  0  0  0  0  0  0  0
    7.3287   48.5266  127.8366 C   0  0  0  0  0  0  0  0  0  0  0  0
    6.8968   49.7891  127.6000 C   0  0  0  0  0  0  0  0  0  0  0  0
    7.1579   50.8267  128.5354 C   0  0  0  0  0  0  0  0  0  0  0  0
    7.8537   50.4875  129.6664 C   0  0  0  0  0  0  0  0  0  0  0  0
    8.1335   51.4603  130.6427 C   0  0  0  0  0  0  0  0  0  0  0  0
    8.8150   51.1054  131.7831 C   0  0  0  0  0  0  0  0  0  0  0  0
    9.2475   49.8141  132.0179 C   0  0  0  0  0  0  0  0  0  0  0  0
    8.9803   48.8701  131.0644 C   0  0  0  0  0  0  0  0  0  0  0  0
    8.2873   49.2150  129.9062 C   0  0  0  0  0  0  0  0  0  0  0  0
    8.8658   44.8071  130.1704 N   0  0  0  0  0  0  0  0  0  0  0  0
    9.2829   45.8089  129.2001 C   0  0  0  0  0  0  0  0  0  0  0  0
   10.3128   45.3965  128.5322 O   0  0  0  0  0  0  0  0  0  0  0  0
    8.6590   46.9893  129.0884 N   0  0  0  0  0  0  0  0  0  0  0  0
    8.0210   45.1000  130.7844 H   0  0  0  0  0  0  0  0  0  0  0  0
    9.5464   47.3537  128.0995 H   0  0  0  0  0  0  0  0  0  0  0  0
   10.0016   43.1038  131.4416 N   0  0  0  0  0  0  0  0  0  0  0  0
   10.1447   41.8110  131.3705 N   0  0  0  0  0  0  0  0  0  0  0  0
    9.6127   41.3076  130.2374 C   0  0  0  0  0  0  0  0  0  0  0  0
    9.0873   42.3678  129.5350 C   0  0  0  0  0  0  0  0  0  0  0  0
    9.3158   43.4968  130.2773 C   0  0  0  0  0  0  0  0  0  0  0  0
   12.4271   47.0250  134.8947 C   0  0  0  0  0  0  0  0  0  0  0  0
   11.7938   45.9603  134.0361 C   0  0  0  0  0  0  0  0  0  0  0  0
   10.4199   45.8458  134.0044 C   0  0  0  0  0  0  0  0  0  0  0  0
    9.8138   44.8904  133.1635 C   0  0  0  0  0  0  0  0  0  0  0  0
   10.5163   44.0546  132.3623 C   0  0  0  0  0  0  0  0  0  0  0  0
   11.9361   44.1831  132.4128 C   0  0  0  0  0  0  0  0  0  0  0  0
   12.5341   45.1143  133.2311 C   0  0  0  0  0  0  0  0  0  0  0  0
    9.5969   39.8720  129.8040 C   0  0  0  0  0  0  0  0  0  0  0  0
    9.9278   39.8389  128.4431 F   0  0  0  0  0  0  0  0  0  0  0  0
   10.5428   39.1302  130.4362 F   0  0  0  0  0  0  0  0  0  0  0  0
    8.3430   39.3116  129.8768 F   0  0  0  0  0  0  0  0  0  0  0  0
    6.7020   52.0310  128.2119 O   0  0  0  0  0  0  0  0  0  0  0  0
    6.8459   53.0872  127.4241 C   0  0  0  0  0  0  0  0  0  0  0  0
    8.0542   53.7390  127.1682 C   0  0  0  0  0  0  0  0  0  0  0  0
    8.0184   54.8113  126.3024 C   0  0  0  0  0  0  0  0  0  0  0  0
    6.8767   55.2235  125.7232 N   0  0  0  0  0  0  0  0  0  0  0  0
    5.7100   54.6325  125.9471 C   0  0  0  0  0  0  0  0  0  0  0  0
    4.5633   55.0475  125.3493 N   0  0  0  0  0  0  0  0  0  0  0  0
    3.3709   54.4662  125.5382 C   0  0  0  0  0  0  0  0  0  0  0  0
    2.3401   54.8794  124.9666 O   0  0  0  0  0  0  0  0  0  0  0  0
    3.3590   53.3961  126.3931 C   0  0  0  0  0  0  0  0  0  0  0  0
    4.4570   52.9320  127.0182 N   0  0  0  0  0  0  0  0  0  0  0  0
    5.6598   53.5572  126.7967 C   0  0  0  0  0  0  0  0  0  0  0  0
    4.6483   55.8559  124.7006 H   0  0  0  0  0  0  0  0  0  0  0  0
 22 23  1  0  0  0
 23 24  2  0  0  0
 24 25  1  0  0  0
 25 26  2  0  0  0
 26 27  1  0  0  0
 27 28  2  0  0  0
 26 17  1  0  0  0
 17 18  1  0  0  0
 18 19  2  0  0  0
 19 20  1  0  0  0
 20 21  2  0  0  0
 21 11  1  0  0  0
 11 12  1  0  0  0
 12 13  2  0  0  0
 12 14  1  0  0  0
 14  1  1  0  0  0
  1  2  2  0  0  0
  2  3  1  0  0  0
  3  4  2  0  0  0
  4 33  1  0  0  0
 33 34  1  0  0  0
 34 35  2  0  0  0
 35 36  1  0  0  0
 36 37  2  0  0  0
 37 38  1  0  0  0
 38 39  1  0  0  0
 39 40  1  0  0  0
 40 41  2  0  0  0
 40 42  1  0  0  0
 42 43  2  0  0  0
 43 44  1  0  0  0
  4  5  1  0  0  0
  5  6  2  0  0  0
  6  7  1  0  0  0
  7  8  2  0  0  0
  8  9  1  0  0  0
  9 10  2  0  0  0
 19 29  1  0  0  0
 29 30  1  0  0  0
 29 31  1  0  0  0
 29 32  1  0  0  0
 28 23  1  0  0  0
 21 17  1  0  0  0
 10  1  1  0  0  0
 44 34  1  0  0  0
 10  5  1  0  0  0
 44 38  2  0  0  0
 11 15  1  0  0  0
 14 16  1  0  0  0
 39 45  1  0  0  0
M  END
> <minimizedAffinity>
22.30362

> <CNNscore>
0.3424915969

> <CNNaffinity>
7.4564409256

> <CNN_VS>
2.5537683964

> <CNNaffinity_variance>
0.6372265816

$$$$
[H]c1nc(OC([H])(C([H])([H])[H])C([H])([H])[H])c(N2C([H])([H])C([H])([H])OC([H])([H])C2([H])[H])c([H])c1-c1c(C([H])([H])[H])nc([H])c(N([H])C(=O)c2c([H])c([H])c([H])c(C(F)(F)F)c2[H])c1[H]


 37 40  0  0  0  0  0  0  0  0999 V2000
    9.6782   45.4851  131.6276 C   0  0  0  0  0  0  0  0  0  0  0  0
   10.4821   46.2177  132.4554 C   0  0  0  0  0  0  0  0  0  0  0  0
   11.3753   45.6628  133.3831 C   0  0  0  0  0  0  0  0  0  0  0  0
   11.4040   44.2410  133.4144 C   0  0  0  0  0  0  0  0  0  0  0  0
   10.6418   43.5570  132.6289 N   0  0  0  0  0  0  0  0  0  0  0  0
    9.7678   44.1053  131.7273 C   0  0  0  0  0  0  0  0  0  0  0  0
    8.9484   43.1857  130.9351 C   0  0  0  0  0  0  0  0  0  0  0  0
    6.8042   46.9554  128.9829 C   0  0  0  0  0  0  0  0  0  0  0  0
    7.0345   45.6313  129.0806 N   0  0  0  0  0  0  0  0  0  0  0  0
    7.9774   45.1447  129.8913 C   0  0  0  0  0  0  0  0  0  0  0  0
    8.7318   46.0070  130.6528 C   0  0  0  0  0  0  0  0  0  0  0  0
    8.5209   47.3828  130.5718 C   0  0  0  0  0  0  0  0  0  0  0  0
    7.5330   47.8536  129.7154 C   0  0  0  0  0  0  0  0  0  0  0  0
    7.2672   49.2391  129.6276 N   0  0  0  0  0  0  0  0  0  0  0  0
    6.1949   49.8422  130.3788 C   0  0  0  0  0  0  0  0  0  0  0  0
    6.7031   51.1485  130.9391 C   0  0  0  0  0  0  0  0  0  0  0  0
    7.1234   51.9938  129.9354 O   0  0  0  0  0  0  0  0  0  0  0  0
    7.1589   51.4208  128.6810 C   0  0  0  0  0  0  0  0  0  0  0  0
    8.0227   50.1496  128.7860 C   0  0  0  0  0  0  0  0  0  0  0  0
    5.8045   47.4459  128.1337 O   0  0  0  0  0  0  0  0  0  0  0  0
    4.2317   49.0774  129.0050 C   0  0  0  0  0  0  0  0  0  0  0  0
    4.4779   47.6378  128.6849 C   0  0  0  0  0  0  0  0  0  0  0  0
    4.3312   46.8121  129.9271 C   0  0  0  0  0  0  0  0  0  0  0  0
   12.1801   46.3667  134.2656 N   0  0  0  0  0  0  0  0  0  0  0  0
   13.4722   46.8907  134.2651 C   0  0  0  0  0  0  0  0  0  0  0  0
   14.2337   46.7714  133.2977 O   0  0  0  0  0  0  0  0  0  0  0  0
   11.6527   46.5986  135.2247 H   0  0  0  0  0  0  0  0  0  0  0  0
   13.9396   47.6136  135.4825 C   0  0  0  0  0  0  0  0  0  0  0  0
   13.3680   48.7982  135.8616 C   0  0  0  0  0  0  0  0  0  0  0  0
   13.7890   49.3951  137.0610 C   0  0  0  0  0  0  0  0  0  0  0  0
   14.7512   48.8143  137.8363 C   0  0  0  0  0  0  0  0  0  0  0  0
   15.3192   47.6030  137.4199 C   0  0  0  0  0  0  0  0  0  0  0  0
   14.9118   47.0072  136.2427 C   0  0  0  0  0  0  0  0  0  0  0  0
   16.3640   46.9960  138.2821 C   0  0  0  0  0  0  0  0  0  0  0  0
   16.7565   45.7543  137.7865 F   0  0  0  0  0  0  0  0  0  0  0  0
   17.4748   47.8095  138.2506 F   0  0  0  0  0  0  0  0  0  0  0  0
   15.8448   46.8648  139.5616 F   0  0  0  0  0  0  0  0  0  0  0  0
 21 22  1  0  0  0
 22 23  1  0  0  0
 22 20  1  0  0  0
 20  8  1  0  0  0
  8  9  2  0  0  0
  9 10  1  0  0  0
 10 11  2  0  0  0
 11 12  1  0  0  0
 12 13  2  0  0  0
 13 14  1  0  0  0
 14 15  1  0  0  0
 15 16  1  0  0  0
 16 17  1  0  0  0
 17 18  1  0  0  0
 18 19  1  0  0  0
 11  1  1  0  0  0
  1  2  2  0  0  0
  2  3  1  0  0  0
  3 24  1  0  0  0
 24 25  1  0  0  0
 25 26  2  0  0  0
 25 28  1  0  0  0
 28 29  2  0  0  0
 29 30  1  0  0  0
 30 31  2  0  0  0
 31 32  1  0  0  0
 32 33  2  0  0  0
 32 34  1  0  0  0
 34 35  1  0  0  0
 34 36  1  0  0  0
 34 37  1  0  0  0
  3  4  2  0  0  0
  4  5  1  0  0  0
  5  6  2  0  0  0
  6  7  1  0  0  0
 13  8  1  0  0  0
 19 14  1  0  0  0
  6  1  1  0  0  0
 33 28  1  0  0  0
 24 27  1  0  0  0
M  END
> <minimizedAffinity>
25.47024

> <CNNscore>
0.5427354574

> <CNNaffinity>
7.6459951401

> <CNN_VS>
4.1497526169

> <CNNaffinity_variance>
2.0445156097

$$$$
[H]c1nc(OC([H])(C([H])([H])[H])C([H])([H])[H])c(N2C([H])([H])C([H])([H])OC([H])([H])C2([H])[H])c([H])c1-c1c(C([H])([H])[H])nc([H])c(N([H])C(=O)c2c([H])c([H])c([H])c(C(F)(F)F)c2[H])c1[H]


 37 40  0  0  0  0  0  0  0  0999 V2000
    9.8085   48.0414  132.4684 C   0  0  0  0  0  0  0  0  0  0  0  0
    9.8554   46.7238  132.1084 C   0  0  0  0  0  0  0  0  0  0  0  0
   10.6297   45.7537  132.7610 C   0  0  0  0  0  0  0  0  0  0  0  0
   11.3901   46.2329  133.8635 C   0  0  0  0  0  0  0  0  0  0  0  0
   11.3396   47.4787  134.1969 N   0  0  0  0  0  0  0  0  0  0  0  0
   10.5840   48.4227  133.5524 C   0  0  0  0  0  0  0  0  0  0  0  0
   10.6680   49.8020  134.0372 C   0  0  0  0  0  0  0  0  0  0  0  0
    7.6884   51.0082  130.4388 C   0  0  0  0  0  0  0  0  0  0  0  0
    8.8613   51.2907  131.0391 N   0  0  0  0  0  0  0  0  0  0  0  0
    9.5341   50.3649  131.7270 C   0  0  0  0  0  0  0  0  0  0  0  0
    9.0292   49.0889  131.8254 C   0  0  0  0  0  0  0  0  0  0  0  0
    7.8161   48.7656  131.2190 C   0  0  0  0  0  0  0  0  0  0  0  0
    7.1420   49.7551  130.5136 C   0  0  0  0  0  0  0  0  0  0  0  0
    5.9248   49.4595  129.8586 N   0  0  0  0  0  0  0  0  0  0  0  0
    5.8063   48.3211  128.9825 C   0  0  0  0  0  0  0  0  0  0  0  0
    4.4796   47.6586  129.2649 C   0  0  0  0  0  0  0  0  0  0  0  0
    3.4321   48.5314  129.0657 O   0  0  0  0  0  0  0  0  0  0  0  0
    3.8107   49.8370  128.8312 C   0  0  0  0  0  0  0  0  0  0  0  0
    4.7231   50.2623  129.9973 C   0  0  0  0  0  0  0  0  0  0  0  0
    7.0020   51.9904  129.7140 O   0  0  0  0  0  0  0  0  0  0  0  0
    6.9242   53.6293  127.9245 C   0  0  0  0  0  0  0  0  0  0  0  0
    7.4932   52.3284  128.3930 C   0  0  0  0  0  0  0  0  0  0  0  0
    7.1233   51.2398  127.4313 C   0  0  0  0  0  0  0  0  0  0  0  0
   10.7352   44.4174  132.4072 N   0  0  0  0  0  0  0  0  0  0  0  0
   10.1991   43.5801  131.4297 C   0  0  0  0  0  0  0  0  0  0  0  0
    9.3917   43.9835  130.5838 O   0  0  0  0  0  0  0  0  0  0  0  0
   11.4559   43.8637  133.0596 H   0  0  0  0  0  0  0  0  0  0  0  0
   10.6198   42.1497  131.4194 C   0  0  0  0  0  0  0  0  0  0  0  0
   11.3305   41.6167  132.4608 C   0  0  0  0  0  0  0  0  0  0  0  0
   11.6296   40.2448  132.4391 C   0  0  0  0  0  0  0  0  0  0  0  0
   11.2271   39.4531  131.4021 C   0  0  0  0  0  0  0  0  0  0  0  0
   10.5035   40.0288  130.3494 C   0  0  0  0  0  0  0  0  0  0  0  0
   10.2034   41.3766  130.3614 C   0  0  0  0  0  0  0  0  0  0  0  0
   10.0808   39.1440  129.2349 C   0  0  0  0  0  0  0  0  0  0  0  0
   11.0176   38.1353  129.0196 F   0  0  0  0  0  0  0  0  0  0  0  0
    8.9038   38.5274  129.5969 F   0  0  0  0  0  0  0  0  0  0  0  0
    9.9374   39.9230  128.0962 F   0  0  0  0  0  0  0  0  0  0  0  0
 21 22  1  0  0  0
 22 23  1  0  0  0
 22 20  1  0  0  0
 20  8  1  0  0  0
  8  9  2  0  0  0
  9 10  1  0  0  0
 10 11  2  0  0  0
 11 12  1  0  0  0
 12 13  2  0  0  0
 13 14  1  0  0  0
 14 15  1  0  0  0
 15 16  1  0  0  0
 16 17  1  0  0  0
 17 18  1  0  0  0
 18 19  1  0  0  0
 11  1  1  0  0  0
  1  2  2  0  0  0
  2  3  1  0  0  0
  3 24  1  0  0  0
 24 25  1  0  0  0
 25 26  2  0  0  0
 25 28  1  0  0  0
 28 29  2  0  0  0
 29 30  1  0  0  0
 30 31  2  0  0  0
 31 32  1  0  0  0
 32 33  2  0  0  0
 32 34  1  0  0  0
 34 35  1  0  0  0
 34 36  1  0  0  0
 34 37  1  0  0  0
  3  4  2  0  0  0
  4  5  1  0  0  0
  5  6  2  0  0  0
  6  7  1  0  0  0
 13  8  1  0  0  0
 19 14  1  0  0  0
  6  1  1  0  0  0
 33 28  1  0  0  0
 24 27  1  0  0  0
M  END
> <minimizedAffinity>
31.08303

> <CNNscore>
0.4744850099

> <CNNaffinity>
7.3487100601

> <CNN_VS>
3.4868528843

> <CNNaffinity_variance>
1.7615528107

$$$$
[H]c1nc(OC([H])(C([H])([H])[H])C([H])([H])[H])c(N2C([H])([H])C([H])([H])OC([H])([H])C2([H])[H])c([H])c1-c1c(C([H])([H])[H])nc([H])c(N([H])C(=O)c2c([H])c([H])c([H])c(C(F)(F)F)c2[H])c1[H]


 37 40  0  0  0  0  0  0  0  0999 V2000
    8.1700   49.7783  130.0803 C   0  0  0  0  0  0  0  0  0  0  0  0
    8.2016   50.5448  128.9492 C   0  0  0  0  0  0  0  0  0  0  0  0
    7.2306   51.4996  128.6147 C   0  0  0  0  0  0  0  0  0  0  0  0
    6.1718   51.6357  129.5549 C   0  0  0  0  0  0  0  0  0  0  0  0
    6.1501   50.9081  130.6207 N   0  0  0  0  0  0  0  0  0  0  0  0
    7.1000   49.9736  130.9398 C   0  0  0  0  0  0  0  0  0  0  0  0
    6.9063   49.2066  132.1721 C   0  0  0  0  0  0  0  0  0  0  0  0
   10.8218   46.8206  131.3596 C   0  0  0  0  0  0  0  0  0  0  0  0
   10.7832   48.0204  131.9720 N   0  0  0  0  0  0  0  0  0  0  0  0
    9.9703   48.9928  131.5518 C   0  0  0  0  0  0  0  0  0  0  0  0
    9.1450   48.7718  130.4734 C   0  0  0  0  0  0  0  0  0  0  0  0
    9.1638   47.5427  129.8155 C   0  0  0  0  0  0  0  0  0  0  0  0
   10.0245   46.5550  130.2787 C   0  0  0  0  0  0  0  0  0  0  0  0
   10.0512   45.2851  129.6585 N   0  0  0  0  0  0  0  0  0  0  0  0
    9.0720   44.2772  129.9796 C   0  0  0  0  0  0  0  0  0  0  0  0
    8.6488   43.6185  128.6890 C   0  0  0  0  0  0  0  0  0  0  0  0
    9.7249   43.0551  128.0384 O   0  0  0  0  0  0  0  0  0  0  0  0
   10.9516   43.3557  128.5935 C   0  0  0  0  0  0  0  0  0  0  0  0
   11.0480   44.8908  128.6794 C   0  0  0  0  0  0  0  0  0  0  0  0
   11.6746   45.8102  131.8209 O   0  0  0  0  0  0  0  0  0  0  0  0
   12.4200   44.1949  133.4730 C   0  0  0  0  0  0  0  0  0  0  0  0
   11.4573   45.2946  133.1578 C   0  0  0  0  0  0  0  0  0  0  0  0
   10.0527   44.7843  133.2719 C   0  0  0  0  0  0  0  0  0  0  0  0
    7.2042   52.2705  127.4627 N   0  0  0  0  0  0  0  0  0  0  0  0
    7.3779   53.6148  127.1359 C   0  0  0  0  0  0  0  0  0  0  0  0
    7.6156   54.4774  127.9898 O   0  0  0  0  0  0  0  0  0  0  0  0
    7.0169   51.6552  126.5473 H   0  0  0  0  0  0  0  0  0  0  0  0
    7.2657   54.0116  125.7030 C   0  0  0  0  0  0  0  0  0  0  0  0
    8.3822   54.2592  124.9509 C   0  0  0  0  0  0  0  0  0  0  0  0
    8.2236   54.5483  123.5859 C   0  0  0  0  0  0  0  0  0  0  0  0
    6.9842   54.5876  123.0142 C   0  0  0  0  0  0  0  0  0  0  0  0
    5.8604   54.3322  123.8112 C   0  0  0  0  0  0  0  0  0  0  0  0
    6.0055   54.0461  125.1542 C   0  0  0  0  0  0  0  0  0  0  0  0
    4.5261   54.3836  123.1628 C   0  0  0  0  0  0  0  0  0  0  0  0
    4.0173   53.1006  122.9721 F   0  0  0  0  0  0  0  0  0  0  0  0
    3.6597   55.0365  124.0112 F   0  0  0  0  0  0  0  0  0  0  0  0
    4.6623   55.0365  121.9465 F   0  0  0  0  0  0  0  0  0  0  0  0
 21 22  1  0  0  0
 22 23  1  0  0  0
 22 20  1  0  0  0
 20  8  1  0  0  0
  8  9  2  0  0  0
  9 10  1  0  0  0
 10 11  2  0  0  0
 11 12  1  0  0  0
 12 13  2  0  0  0
 13 14  1  0  0  0
 14 15  1  0  0  0
 15 16  1  0  0  0
 16 17  1  0  0  0
 17 18  1  0  0  0
 18 19  1  0  0  0
 11  1  1  0  0  0
  1  2  2  0  0  0
  2  3  1  0  0  0
  3 24  1  0  0  0
 24 25  1  0  0  0
 25 26  2  0  0  0
 25 28  1  0  0  0
 28 29  2  0  0  0
 29 30  1  0  0  0
 30 31  2  0  0  0
 31 32  1  0  0  0
 32 33  2  0  0  0
 32 34  1  0  0  0
 34 35  1  0  0  0
 34 36  1  0  0  0
 34 37  1  0  0  0
  3  4  2  0  0  0
  4  5  1  0  0  0
  5  6  2  0  0  0
  6  7  1  0  0  0
 13  8  1  0  0  0
 19 14  1  0  0  0
  6  1  1  0  0  0
 33 28  1  0  0  0
 24 27  1  0  0  0
M  END
> <minimizedAffinity>
0.23837

> <CNNscore>
0.4613429904

> <CNNaffinity>
7.3203926086

> <CNN_VS>
3.3772118092

> <CNNaffinity_variance>
0.4174103737

$$$$
[H]c1nc(OC([H])(C([H])([H])[H])C([H])([H])[H])c(N2C([H])([H])C([H])([H])OC([H])([H])C2([H])[H])c([H])c1-c1c(C([H])([H])[H])nc([H])c(N([H])C(=O)c2c([H])c([H])c([H])c(C(F)(F)F)c2[H])c1[H]


 37 40  0  0  0  0  0  0  0  0999 V2000
    9.8918   43.3807  132.1680 C   0  0  0  0  0  0  0  0  0  0  0  0
    9.9122   42.8618  130.9037 C   0  0  0  0  0  0  0  0  0  0  0  0
   10.5650   41.6727  130.5484 C   0  0  0  0  0  0  0  0  0  0  0  0
   11.2270   41.0074  131.6174 C   0  0  0  0  0  0  0  0  0  0  0  0
   11.2022   41.5042  132.8083 N   0  0  0  0  0  0  0  0  0  0  0  0
   10.5659   42.6691  133.1483 C   0  0  0  0  0  0  0  0  0  0  0  0
   10.6652   43.1120  134.5405 C   0  0  0  0  0  0  0  0  0  0  0  0
    8.2060   46.9708  133.4664 C   0  0  0  0  0  0  0  0  0  0  0  0
    8.2666   45.9037  134.2872 N   0  0  0  0  0  0  0  0  0  0  0  0
    8.7655   44.7351  133.8771 C   0  0  0  0  0  0  0  0  0  0  0  0
    9.2367   44.6097  132.5905 C   0  0  0  0  0  0  0  0  0  0  0  0
    9.1846   45.6938  131.7153 C   0  0  0  0  0  0  0  0  0  0  0  0
    8.6562   46.8937  132.1757 C   0  0  0  0  0  0  0  0  0  0  0  0
    8.6141   48.0250  131.3292 N   0  0  0  0  0  0  0  0  0  0  0  0
    9.6172   49.0568  131.4124 C   0  0  0  0  0  0  0  0  0  0  0  0
    9.9875   49.4536  130.0038 C   0  0  0  0  0  0  0  0  0  0  0  0
    8.8885   49.9049  129.3057 O   0  0  0  0  0  0  0  0  0  0  0  0
    7.6856   49.7366  129.9597 C   0  0  0  0  0  0  0  0  0  0  0  0
    7.5776   48.2470  130.3371 C   0  0  0  0  0  0  0  0  0  0  0  0
    7.6876   48.1908  133.9178 O   0  0  0  0  0  0  0  0  0  0  0  0
    9.3687   47.9209  135.6486 C   0  0  0  0  0  0  0  0  0  0  0  0
    8.2763   48.7833  135.1022 C   0  0  0  0  0  0  0  0  0  0  0  0
    7.2148   48.9736  136.1432 C   0  0  0  0  0  0  0  0  0  0  0  0
   10.6422   41.1310  129.2746 N   0  0  0  0  0  0  0  0  0  0  0  0
   10.2709   41.5104  127.9853 C   0  0  0  0  0  0  0  0  0  0  0  0
    9.7029   42.5836  127.7496 O   0  0  0  0  0  0  0  0  0  0  0  0
   11.1569   40.1377  129.2688 H   0  0  0  0  0  0  0  0  0  0  0  0
   10.5719   40.5770  126.8622 C   0  0  0  0  0  0  0  0  0  0  0  0
   11.8073   40.0011  126.7364 C   0  0  0  0  0  0  0  0  0  0  0  0
   12.0124   39.0660  125.7090 C   0  0  0  0  0  0  0  0  0  0  0  0
   11.0065   38.7360  124.8466 C   0  0  0  0  0  0  0  0  0  0  0  0
    9.7538   39.3448  124.9997 C   0  0  0  0  0  0  0  0  0  0  0  0
    9.5414   40.2649  126.0071 C   0  0  0  0  0  0  0  0  0  0  0  0
    8.6801   38.9678  124.0465 C   0  0  0  0  0  0  0  0  0  0  0  0
    9.2024   38.2619  122.9647 F   0  0  0  0  0  0  0  0  0  0  0  0
    7.8071   38.1217  124.6935 F   0  0  0  0  0  0  0  0  0  0  0  0
    8.0606   40.1306  123.6126 F   0  0  0  0  0  0  0  0  0  0  0  0
 21 22  1  0  0  0
 22 23  1  0  0  0
 22 20  1  0  0  0
 20  8  1  0  0  0
  8  9  2  0  0  0
  9 10  1  0  0  0
 10 11  2  0  0  0
 11 12  1  0  0  0
 12 13  2  0  0  0
 13 14  1  0  0  0
 14 15  1  0  0  0
 15 16  1  0  0  0
 16 17  1  0  0  0
 17 18  1  0  0  0
 18 19  1  0  0  0
 11  1  1  0  0  0
  1  2  2  0  0  0
  2  3  1  0  0  0
  3 24  1  0  0  0
 24 25  1  0  0  0
 25 26  2  0  0  0
 25 28  1  0  0  0
 28 29  2  0  0  0
 29 30  1  0  0  0
 30 31  2  0  0  0
 31 32  1  0  0  0
 32 33  2  0  0  0
 32 34  1  0  0  0
 34 35  1  0  0  0
 34 36  1  0  0  0
 34 37  1  0  0  0
  3  4  2  0  0  0
  4  5  1  0  0  0
  5  6  2  0  0  0
  6  7  1  0  0  0
 13  8  1  0  0  0
 19 14  1  0  0  0
  6  1  1  0  0  0
 33 28  1  0  0  0
 24 27  1  0  0  0
M  END
> <minimizedAffinity>
30.42717

> <CNNscore>
0.3812097609

> <CNNaffinity>
7.2327528000

> <CNN_VS>
2.7571959496

> <CNNaffinity_variance>
0.7275307775

$$$$
[H]c1nc(OC([H])(C([H])([H])[H])C([H])([H])[H])c(N2C([H])([H])C([H])([H])OC([H])([H])C2([H])[H])c([H])c1-c1c(C([H])([H])[H])nc([H])c(N([H])C(=O)c2c([H])c([H])c([H])c(C(F)(F)F)c2[H])c1[H]


 37 40  0  0  0  0  0  0  0  0999 V2000
    8.0668   49.0445  130.0514 C   0  0  0  0  0  0  0  0  0  0  0  0
    8.0017   49.6977  128.8526 C   0  0  0  0  0  0  0  0  0  0  0  0
    7.5550   51.0177  128.6955 C   0  0  0  0  0  0  0  0  0  0  0  0
    7.1619   51.6669  129.8987 C   0  0  0  0  0  0  0  0  0  0  0  0
    7.2270   51.0427  131.0264 N   0  0  0  0  0  0  0  0  0  0  0  0
    7.6606   49.7512  131.1727 C   0  0  0  0  0  0  0  0  0  0  0  0
    7.6385   49.1793  132.5207 C   0  0  0  0  0  0  0  0  0  0  0  0
    9.2847   45.0756  130.4765 C   0  0  0  0  0  0  0  0  0  0  0  0
    8.0180   45.4395  130.7576 N   0  0  0  0  0  0  0  0  0  0  0  0
    7.6203   46.7108  130.6663 C   0  0  0  0  0  0  0  0  0  0  0  0
    8.5158   47.6777  130.2709 C   0  0  0  0  0  0  0  0  0  0  0  0
    9.8347   47.3345  129.9767 C   0  0  0  0  0  0  0  0  0  0  0  0
   10.2139   46.0020  130.0854 C   0  0  0  0  0  0  0  0  0  0  0  0
   11.5335   45.6085  129.7663 N   0  0  0  0  0  0  0  0  0  0  0  0
   12.4999   45.3317  130.7994 C   0  0  0  0  0  0  0  0  0  0  0  0
   13.2653   44.0951  130.3947 C   0  0  0  0  0  0  0  0  0  0  0  0
   13.8938   44.2705  129.1810 O   0  0  0  0  0  0  0  0  0  0  0  0
   13.5574   45.4363  128.5247 C   0  0  0  0  0  0  0  0  0  0  0  0
   12.0217   45.4648  128.4066 C   0  0  0  0  0  0  0  0  0  0  0  0
    9.6805   43.7355  130.5694 O   0  0  0  0  0  0  0  0  0  0  0  0
    7.4933   42.8038  130.0769 C   0  0  0  0  0  0  0  0  0  0  0  0
    8.6882   42.7600  130.9745 C   0  0  0  0  0  0  0  0  0  0  0  0
    8.2690   43.0342  132.3872 C   0  0  0  0  0  0  0  0  0  0  0  0
    7.4380   51.7045  127.4969 N   0  0  0  0  0  0  0  0  0  0  0  0
    7.3843   53.0373  127.0910 C   0  0  0  0  0  0  0  0  0  0  0  0
    7.4323   53.9759  127.8952 O   0  0  0  0  0  0  0  0  0  0  0  0
    7.3983   51.0145  126.6172 H   0  0  0  0  0  0  0  0  0  0  0  0
    7.2600   53.3253  125.6334 C   0  0  0  0  0  0  0  0  0  0  0  0
    8.3506   53.2676  124.8082 C   0  0  0  0  0  0  0  0  0  0  0  0
    8.1634   53.4662  123.4307 C   0  0  0  0  0  0  0  0  0  0  0  0
    6.9229   53.7165  122.9178 C   0  0  0  0  0  0  0  0  0  0  0  0
    5.8267   53.7720  123.7887 C   0  0  0  0  0  0  0  0  0  0  0  0
    5.9997   53.5773  125.1447 C   0  0  0  0  0  0  0  0  0  0  0  0
    4.4908   54.0475  123.2030 C   0  0  0  0  0  0  0  0  0  0  0  0
    3.7685   52.8675  123.0377 F   0  0  0  0  0  0  0  0  0  0  0  0
    3.7843   54.8291  124.0899 F   0  0  0  0  0  0  0  0  0  0  0  0
    4.6770   54.6768  121.9809 F   0  0  0  0  0  0  0  0  0  0  0  0
 21 22  1  0  0  0
 22 23  1  0  0  0
 22 20  1  0  0  0
 20  8  1  0  0  0
  8  9  2  0  0  0
  9 10  1  0  0  0
 10 11  2  0  0  0
 11 12  1  0  0  0
 12 13  2  0  0  0
 13 14  1  0  0  0
 14 15  1  0  0  0
 15 16  1  0  0  0
 16 17  1  0  0  0
 17 18  1  0  0  0
 18 19  1  0  0  0
 11  1  1  0  0  0
  1  2  2  0  0  0
  2  3  1  0  0  0
  3 24  1  0  0  0
 24 25  1  0  0  0
 25 26  2  0  0  0
 25 28  1  0  0  0
 28 29  2  0  0  0
 29 30  1  0  0  0
 30 31  2  0  0  0
 31 32  1  0  0  0
 32 33  2  0  0  0
 32 34  1  0  0  0
 34 35  1  0  0  0
 34 36  1  0  0  0
 34 37  1  0  0  0
  3  4  2  0  0  0
  4  5  1  0  0  0
  5  6  2  0  0  0
  6  7  1  0  0  0
 13  8  1  0  0  0
 19 14  1  0  0  0
  6  1  1  0  0  0
 33 28  1  0  0  0
 24 27  1  0  0  0
M  END
> <minimizedAffinity>
10.49854

> <CNNscore>
0.3770684302

> <CNNaffinity>
7.1720824242

> <CNN_VS>
2.7043659687

> <CNNaffinity_variance>
1.0891010761

$$$$
[H]c1nc(OC([H])(C([H])([H])[H])C([H])([H])[H])c(N2C([H])([H])C([H])([H])OC([H])([H])C2([H])[H])c([H])c1-c1c(C([H])([H])[H])nc([H])c(N([H])C(=O)c2c([H])c([H])c([H])c(C(F)(F)F)c2[H])c1[H]


 37 40  0  0  0  0  0  0  0  0999 V2000
    8.1242   48.9020  129.8477 C   0  0  0  0  0  0  0  0  0  0  0  0
    7.9416   49.7714  128.8090 C   0  0  0  0  0  0  0  0  0  0  0  0
    7.3001   51.0132  128.9219 C   0  0  0  0  0  0  0  0  0  0  0  0
    6.8353   51.3337  130.2276 C   0  0  0  0  0  0  0  0  0  0  0  0
    7.0124   50.5070  131.2028 N   0  0  0  0  0  0  0  0  0  0  0  0
    7.6365   49.2929  131.0850 C   0  0  0  0  0  0  0  0  0  0  0  0
    7.7233   48.4583  132.2852 C   0  0  0  0  0  0  0  0  0  0  0  0
   10.1750   45.2761  129.5960 C   0  0  0  0  0  0  0  0  0  0  0  0
    9.5239   45.7729  128.5258 N   0  0  0  0  0  0  0  0  0  0  0  0
    8.8290   46.9108  128.5979 C   0  0  0  0  0  0  0  0  0  0  0  0
    8.7759   47.6021  129.7862 C   0  0  0  0  0  0  0  0  0  0  0  0
    9.4354   47.1127  130.9129 C   0  0  0  0  0  0  0  0  0  0  0  0
   10.1465   45.9241  130.8017 C   0  0  0  0  0  0  0  0  0  0  0  0
   10.8542   45.4106  131.9124 N   0  0  0  0  0  0  0  0  0  0  0  0
   10.2648   44.4223  132.7805 C   0  0  0  0  0  0  0  0  0  0  0  0
   11.3244   43.3937  133.0936 C   0  0  0  0  0  0  0  0  0  0  0  0
   12.4207   43.9720  133.6958 O   0  0  0  0  0  0  0  0  0  0  0  0
   12.3983   45.3511  133.7234 C   0  0  0  0  0  0  0  0  0  0  0  0
   12.1958   45.8317  132.2739 C   0  0  0  0  0  0  0  0  0  0  0  0
   10.9061   44.0857  129.4982 O   0  0  0  0  0  0  0  0  0  0  0  0
    9.7701   43.0036  127.6453 C   0  0  0  0  0  0  0  0  0  0  0  0
   10.2060   42.8908  129.0711 C   0  0  0  0  0  0  0  0  0  0  0  0
    9.0106   42.6742  129.9490 C   0  0  0  0  0  0  0  0  0  0  0  0
    7.0612   51.9074  127.8897 N   0  0  0  0  0  0  0  0  0  0  0  0
    7.1341   53.2873  127.7039 C   0  0  0  0  0  0  0  0  0  0  0  0
    7.4780   54.0588  128.6074 O   0  0  0  0  0  0  0  0  0  0  0  0
    6.7488   51.3909  126.9478 H   0  0  0  0  0  0  0  0  0  0  0  0
    6.7776   53.8376  126.3648 C   0  0  0  0  0  0  0  0  0  0  0  0
    5.5779   54.4628  126.1565 C   0  0  0  0  0  0  0  0  0  0  0  0
    5.3270   55.0358  124.8992 C   0  0  0  0  0  0  0  0  0  0  0  0
    6.2538   54.9710  123.8986 C   0  0  0  0  0  0  0  0  0  0  0  0
    7.4714   54.3217  124.1420 C   0  0  0  0  0  0  0  0  0  0  0  0
    7.7285   53.7557  125.3749 C   0  0  0  0  0  0  0  0  0  0  0  0
    8.4589   54.2653  123.0350 C   0  0  0  0  0  0  0  0  0  0  0  0
    8.0353   55.0337  121.9527 F   0  0  0  0  0  0  0  0  0  0  0  0
    9.6387   54.8177  123.4816 F   0  0  0  0  0  0  0  0  0  0  0  0
    8.6093   52.9389  122.6582 F   0  0  0  0  0  0  0  0  0  0  0  0
 21 22  1  0  0  0
 22 23  1  0  0  0
 22 20  1  0  0  0
 20  8  1  0  0  0
  8  9  2  0  0  0
  9 10  1  0  0  0
 10 11  2  0  0  0
 11 12  1  0  0  0
 12 13  2  0  0  0
 13 14  1  0  0  0
 14 15  1  0  0  0
 15 16  1  0  0  0
 16 17  1  0  0  0
 17 18  1  0  0  0
 18 19  1  0  0  0
 11  1  1  0  0  0
  1  2  2  0  0  0
  2  3  1  0  0  0
  3 24  1  0  0  0
 24 25  1  0  0  0
 25 26  2  0  0  0
 25 28  1  0  0  0
 28 29  2  0  0  0
 29 30  1  0  0  0
 30 31  2  0  0  0
 31 32  1  0  0  0
 32 33  2  0  0  0
 32 34  1  0  0  0
 34 35  1  0  0  0
 34 36  1  0  0  0
 34 37  1  0  0  0
  3  4  2  0  0  0
  4  5  1  0  0  0
  5  6  2  0  0  0
  6  7  1  0  0  0
 13  8  1  0  0  0
 19 14  1  0  0  0
  6  1  1  0  0  0
 33 28  1  0  0  0
 24 27  1  0  0  0
M  END
> <minimizedAffinity>
-1.66673

> <CNNscore>
0.3734727502

> <CNNaffinity>
7.3419103622

> <CNN_VS>
2.7420034409

> <CNNaffinity_variance>
0.3245325387

$$$$
[H]c1nc(OC([H])(C([H])([H])[H])C([H])([H])[H])c(N2C([H])([H])C([H])([H])OC([H])([H])C2([H])[H])c([H])c1-c1c(C([H])([H])[H])nc([H])c(N([H])C(=O)c2c([H])c([H])c([H])c(C(F)(F)F)c2[H])c1[H]


 37 40  0  0  0  0  0  0  0  0999 V2000
    9.3970   44.1061  130.8900 C   0  0  0  0  0  0  0  0  0  0  0  0
    9.8402   43.3721  129.8257 C   0  0  0  0  0  0  0  0  0  0  0  0
    9.6893   41.9831  129.7064 C   0  0  0  0  0  0  0  0  0  0  0  0
    9.0201   41.3552  130.7934 C   0  0  0  0  0  0  0  0  0  0  0  0
    8.6044   42.0561  131.7943 N   0  0  0  0  0  0  0  0  0  0  0  0
    8.7588   43.4129  131.9068 C   0  0  0  0  0  0  0  0  0  0  0  0
    8.2596   44.0511  133.1266 C   0  0  0  0  0  0  0  0  0  0  0  0
    9.8995   48.2365  131.2120 C   0  0  0  0  0  0  0  0  0  0  0  0
   10.8278   47.3912  131.7016 N   0  0  0  0  0  0  0  0  0  0  0  0
   10.6657   46.0671  131.6440 C   0  0  0  0  0  0  0  0  0  0  0  0
    9.5311   45.5444  131.0676 C   0  0  0  0  0  0  0  0  0  0  0  0
    8.5499   46.3921  130.5552 C   0  0  0  0  0  0  0  0  0  0  0  0
    8.7510   47.7648  130.6350 C   0  0  0  0  0  0  0  0  0  0  0  0
    7.7946   48.6573  130.0995 N   0  0  0  0  0  0  0  0  0  0  0  0
    7.1457   48.3882  128.8408 C   0  0  0  0  0  0  0  0  0  0  0  0
    5.6844   48.7349  128.9927 C   0  0  0  0  0  0  0  0  0  0  0  0
    5.5177   50.0557  129.3484 O   0  0  0  0  0  0  0  0  0  0  0  0
    6.6878   50.7180  129.6570 C   0  0  0  0  0  0  0  0  0  0  0  0
    7.4018   49.8961  130.7468 C   0  0  0  0  0  0  0  0  0  0  0  0
   10.0918   49.6222  131.2735 O   0  0  0  0  0  0  0  0  0  0  0  0
   10.1044   49.2213  133.6680 C   0  0  0  0  0  0  0  0  0  0  0  0
   10.3057   50.2219  132.5755 C   0  0  0  0  0  0  0  0  0  0  0  0
    9.3556   51.3668  132.7578 C   0  0  0  0  0  0  0  0  0  0  0  0
   10.1551   41.1961  128.6645 N   0  0  0  0  0  0  0  0  0  0  0  0
    9.9968   39.8782  128.2375 C   0  0  0  0  0  0  0  0  0  0  0  0
    9.2925   39.0654  128.8484 O   0  0  0  0  0  0  0  0  0  0  0  0
   10.8146   41.7687  127.9653 H   0  0  0  0  0  0  0  0  0  0  0  0
   10.7115   39.4474  127.0020 C   0  0  0  0  0  0  0  0  0  0  0  0
   12.0418   39.1262  127.0332 C   0  0  0  0  0  0  0  0  0  0  0  0
   12.6461   38.6472  125.8595 C   0  0  0  0  0  0  0  0  0  0  0  0
   11.9293   38.5059  124.7060 C   0  0  0  0  0  0  0  0  0  0  0  0
   10.5699   38.8457  124.7053 C   0  0  0  0  0  0  0  0  0  0  0  0
    9.9659   39.3168  125.8541 C   0  0  0  0  0  0  0  0  0  0  0  0
    9.8167   38.6835  123.4365 C   0  0  0  0  0  0  0  0  0  0  0  0
   10.0129   37.4117  122.9022 F   0  0  0  0  0  0  0  0  0  0  0  0
    8.4730   38.7983  123.7155 F   0  0  0  0  0  0  0  0  0  0  0  0
   10.2538   39.6549  122.5481 F   0  0  0  0  0  0  0  0  0  0  0  0
 21 22  1  0  0  0
 22 23  1  0  0  0
 22 20  1  0  0  0
 20  8  1  0  0  0
  8  9  2  0  0  0
  9 10  1  0  0  0
 10 11  2  0  0  0
 11 12  1  0  0  0
 12 13  2  0  0  0
 13 14  1  0  0  0
 14 15  1  0  0  0
 15 16  1  0  0  0
 16 17  1  0  0  0
 17 18  1  0  0  0
 18 19  1  0  0  0
 11  1  1  0  0  0
  1  2  2  0  0  0
  2  3  1  0  0  0
  3 24  1  0  0  0
 24 25  1  0  0  0
 25 26  2  0  0  0
 25 28  1  0  0  0
 28 29  2  0  0  0
 29 30  1  0  0  0
 30 31  2  0  0  0
 31 32  1  0  0  0
 32 33  2  0  0  0
 32 34  1  0  0  0
 34 35  1  0  0  0
 34 36  1  0  0  0
 34 37  1  0  0  0
  3  4  2  0  0  0
  4  5  1  0  0  0
  5  6  2  0  0  0
  6  7  1  0  0  0
 13  8  1  0  0  0
 19 14  1  0  0  0
  6  1  1  0  0  0
 33 28  1  0  0  0
 24 27  1  0  0  0
M  END
> <minimizedAffinity>
20.93174

> <CNNscore>
0.3574826121

> <CNNaffinity>
7.0431032181

> <CNN_VS>
2.5177869797

> <CNNaffinity_variance>
0.4209286273

$$$$
[H]c1nc(OC([H])(C([H])([H])[H])C([H])([H])[H])c(N2C([H])([H])C([H])([H])OC([H])([H])C2([H])[H])c([H])c1-c1c(C([H])([H])[H])nc([H])c(N([H])C(=O)c2c([H])c([H])c([H])c(C(F)(F)F)c2[H])c1[H]


 37 40  0  0  0  0  0  0  0  0999 V2000
    7.5382   49.6034  130.4898 C   0  0  0  0  0  0  0  0  0  0  0  0
    8.3528   48.5257  130.2823 C   0  0  0  0  0  0  0  0  0  0  0  0
    9.1588   47.9428  131.2707 C   0  0  0  0  0  0  0  0  0  0  0  0
    9.0766   48.5549  132.5521 C   0  0  0  0  0  0  0  0  0  0  0  0
    8.3044   49.5719  132.7394 N   0  0  0  0  0  0  0  0  0  0  0  0
    7.5222   50.1396  131.7681 C   0  0  0  0  0  0  0  0  0  0  0  0
    6.7297   51.3138  132.1390 C   0  0  0  0  0  0  0  0  0  0  0  0
    5.0315   51.5984  127.8155 C   0  0  0  0  0  0  0  0  0  0  0  0
    4.5584   50.5987  128.5852 N   0  0  0  0  0  0  0  0  0  0  0  0
    5.3538   49.9220  129.4173 C   0  0  0  0  0  0  0  0  0  0  0  0
    6.6872   50.2502  129.5021 C   0  0  0  0  0  0  0  0  0  0  0  0
    7.2086   51.2770  128.7162 C   0  0  0  0  0  0  0  0  0  0  0  0
    6.3519   51.9576  127.8595 C   0  0  0  0  0  0  0  0  0  0  0  0
    6.8350   53.0251  127.0689 N   0  0  0  0  0  0  0  0  0  0  0  0
    6.8176   54.3816  127.5560 C   0  0  0  0  0  0  0  0  0  0  0  0
    8.1269   55.0263  127.1703 C   0  0  0  0  0  0  0  0  0  0  0  0
    8.3112   55.0067  125.8049 O   0  0  0  0  0  0  0  0  0  0  0  0
    7.3765   54.2665  125.1111 C   0  0  0  0  0  0  0  0  0  0  0  0
    7.3651   52.8550  125.7280 C   0  0  0  0  0  0  0  0  0  0  0  0
    4.1795   52.3025  126.9556 O   0  0  0  0  0  0  0  0  0  0  0  0
    2.2120   52.4911  125.5457 C   0  0  0  0  0  0  0  0  0  0  0  0
    2.9304   51.6754  126.5723 C   0  0  0  0  0  0  0  0  0  0  0  0
    2.0636   51.5119  127.7842 C   0  0  0  0  0  0  0  0  0  0  0  0
   10.0255   46.8751  131.0948 N   0  0  0  0  0  0  0  0  0  0  0  0
   10.3872   46.0212  130.0536 C   0  0  0  0  0  0  0  0  0  0  0  0
    9.8840   46.1028  128.9266 O   0  0  0  0  0  0  0  0  0  0  0  0
   10.6081   46.6472  132.0224 H   0  0  0  0  0  0  0  0  0  0  0  0
   11.4145   44.9753  130.3250 C   0  0  0  0  0  0  0  0  0  0  0  0
   11.1894   43.9889  131.2470 C   0  0  0  0  0  0  0  0  0  0  0  0
   12.1551   42.9815  131.4041 C   0  0  0  0  0  0  0  0  0  0  0  0
   13.2995   42.9812  130.6592 C   0  0  0  0  0  0  0  0  0  0  0  0
   13.5021   44.0061  129.7255 C   0  0  0  0  0  0  0  0  0  0  0  0
   12.5585   45.0010  129.5626 C   0  0  0  0  0  0  0  0  0  0  0  0
   14.7561   43.9809  128.9315 C   0  0  0  0  0  0  0  0  0  0  0  0
   15.5831   42.9377  129.3431 F   0  0  0  0  0  0  0  0  0  0  0  0
   14.4284   43.7376  127.6162 F   0  0  0  0  0  0  0  0  0  0  0  0
   15.3960   45.2005  129.0967 F   0  0  0  0  0  0  0  0  0  0  0  0
 21 22  1  0  0  0
 22 23  1  0  0  0
 22 20  1  0  0  0
 20  8  1  0  0  0
  8  9  2  0  0  0
  9 10  1  0  0  0
 10 11  2  0  0  0
 11 12  1  0  0  0
 12 13  2  0  0  0
 13 14  1  0  0  0
 14 15  1  0  0  0
 15 16  1  0  0  0
 16 17  1  0  0  0
 17 18  1  0  0  0
 18 19  1  0  0  0
 11  1  1  0  0  0
  1  2  2  0  0  0
  2  3  1  0  0  0
  3 24  1  0  0  0
 24 25  1  0  0  0
 25 26  2  0  0  0
 25 28  1  0  0  0
 28 29  2  0  0  0
 29 30  1  0  0  0
 30 31  2  0  0  0
 31 32  1  0  0  0
 32 33  2  0  0  0
 32 34  1  0  0  0
 34 35  1  0  0  0
 34 36  1  0  0  0
 34 37  1  0  0  0
  3  4  2  0  0  0
  4  5  1  0  0  0
  5  6  2  0  0  0
  6  7  1  0  0  0
 13  8  1  0  0  0
 19 14  1  0  0  0
  6  1  1  0  0  0
 33 28  1  0  0  0
 24 27  1  0  0  0
M  END
> <minimizedAffinity>
32.44335

> <CNNscore>
0.3499554098

> <CNNaffinity>
6.6015486717

> <CNN_VS>
2.3102476597

> <CNNaffinity_variance>
0.9620035887

$$$$
[H]c1nc(OC([H])(C([H])([H])[H])C([H])([H])[H])c(N2C([H])([H])C([H])([H])OC([H])([H])C2([H])[H])c([H])c1-c1c(C([H])([H])[H])nc([H])c(N([H])C(=O)c2c([H])c([H])c([H])c(C(F)(F)F)c2[H])c1[H]


 37 40  0  0  0  0  0  0  0  0999 V2000
    8.3540   49.9147  130.9472 C   0  0  0  0  0  0  0  0  0  0  0  0
    8.8181   48.6370  131.0892 C   0  0  0  0  0  0  0  0  0  0  0  0
    9.7702   48.2436  132.0407 C   0  0  0  0  0  0  0  0  0  0  0  0
   10.2422   49.2860  132.8858 C   0  0  0  0  0  0  0  0  0  0  0  0
    9.7983   50.4896  132.7450 N   0  0  0  0  0  0  0  0  0  0  0  0
    8.8707   50.8685  131.8103 C   0  0  0  0  0  0  0  0  0  0  0  0
    8.5006   52.2845  131.7607 C   0  0  0  0  0  0  0  0  0  0  0  0
    5.4726   51.3913  128.3140 C   0  0  0  0  0  0  0  0  0  0  0  0
    5.1623   50.4251  129.2007 N   0  0  0  0  0  0  0  0  0  0  0  0
    6.0802   49.9118  130.0235 C   0  0  0  0  0  0  0  0  0  0  0  0
    7.3736   50.3783  129.9766 C   0  0  0  0  0  0  0  0  0  0  0  0
    7.7278   51.3747  129.0679 C   0  0  0  0  0  0  0  0  0  0  0  0
    6.7471   51.8834  128.2250 C   0  0  0  0  0  0  0  0  0  0  0  0
    7.0586   52.9158  127.3111 N   0  0  0  0  0  0  0  0  0  0  0  0
    7.3093   52.6307  125.9206 C   0  0  0  0  0  0  0  0  0  0  0  0
    6.6129   53.6896  125.1005 C   0  0  0  0  0  0  0  0  0  0  0  0
    7.0653   54.9505  125.4233 O   0  0  0  0  0  0  0  0  0  0  0  0
    7.9029   54.9958  126.5185 C   0  0  0  0  0  0  0  0  0  0  0  0
    7.1630   54.3147  127.6854 C   0  0  0  0  0  0  0  0  0  0  0  0
    4.4938   51.9234  127.4656 O   0  0  0  0  0  0  0  0  0  0  0  0
    2.2846   51.9070  126.4590 C   0  0  0  0  0  0  0  0  0  0  0  0
    3.3237   51.1153  127.1861 C   0  0  0  0  0  0  0  0  0  0  0  0
    2.7562   50.5998  128.4741 C   0  0  0  0  0  0  0  0  0  0  0  0
   10.2948   46.9696  132.1946 N   0  0  0  0  0  0  0  0  0  0  0  0
    9.8265   45.6598  132.0987 C   0  0  0  0  0  0  0  0  0  0  0  0
    8.6506   45.3969  131.8194 O   0  0  0  0  0  0  0  0  0  0  0  0
   11.3866   46.9894  132.4380 H   0  0  0  0  0  0  0  0  0  0  0  0
   10.7878   44.5479  132.3489 C   0  0  0  0  0  0  0  0  0  0  0  0
   11.9629   44.7689  133.0153 C   0  0  0  0  0  0  0  0  0  0  0  0
   12.7934   43.6721  133.2969 C   0  0  0  0  0  0  0  0  0  0  0  0
   12.4449   42.4087  132.9134 C   0  0  0  0  0  0  0  0  0  0  0  0
   11.2369   42.2154  132.2304 C   0  0  0  0  0  0  0  0  0  0  0  0
   10.4127   43.2869  131.9492 C   0  0  0  0  0  0  0  0  0  0  0  0
   10.8853   40.8315  131.8244 C   0  0  0  0  0  0  0  0  0  0  0  0
   10.6300   40.7655  130.4563 F   0  0  0  0  0  0  0  0  0  0  0  0
   11.9719   40.0215  132.0690 F   0  0  0  0  0  0  0  0  0  0  0  0
    9.7663   40.4415  132.5454 F   0  0  0  0  0  0  0  0  0  0  0  0
 21 22  1  0  0  0
 22 23  1  0  0  0
 22 20  1  0  0  0
 20  8  1  0  0  0
  8  9  2  0  0  0
  9 10  1  0  0  0
 10 11  2  0  0  0
 11 12  1  0  0  0
 12 13  2  0  0  0
 13 14  1  0  0  0
 14 15  1  0  0  0
 15 16  1  0  0  0
 16 17  1  0  0  0
 17 18  1  0  0  0
 18 19  1  0  0  0
 11  1  1  0  0  0
  1  2  2  0  0  0
  2  3  1  0  0  0
  3 24  1  0  0  0
 24 25  1  0  0  0
 25 26  2  0  0  0
 25 28  1  0  0  0
 28 29  2  0  0  0
 29 30  1  0  0  0
 30 31  2  0  0  0
 31 32  1  0  0  0
 32 33  2  0  0  0
 32 34  1  0  0  0
 34 35  1  0  0  0
 34 36  1  0  0  0
 34 37  1  0  0  0
  3  4  2  0  0  0
  4  5  1  0  0  0
  5  6  2  0  0  0
  6  7  1  0  0  0
 13  8  1  0  0  0
 19 14  1  0  0  0
  6  1  1  0  0  0
 33 28  1  0  0  0
 24 27  1  0  0  0
M  END
> <minimizedAffinity>
30.01829

> <CNNscore>
0.3352380693

> <CNNaffinity>
6.7999939919

> <CNN_VS>
2.2796168327

> <CNNaffinity_variance>
0.9971446991

$$$$
[H]OC([H])([H])[C@@]([H])(C(=O)N([H])[H])N([H])C(=O)[C@@]([H])(N([H])C(=O)[C@@]([H])(N([H])C(=O)[C@@]([H])(N([H])C(=O)[C@@]([H])(N([H])C(=O)[C@@]([H])(N([H])C(=O)[C@@]([H])(N([H])C(=O)C([H])([H])[H])C([H])([H])O[H])C([H])(C([H])([H])[H])C([H])([H])[H])C([H])([H])C([H])([H])C([H])([H])N=C(N([H])[H])N([H])[H])C([H])([H])O[H])C([H])([H])O[H])C([H])([H])O[H]


 70 69  0  0  0  0  0  0  0  0999 V2000
    9.3670   47.4670  132.3787 C   0  0  0  0  0  0  0  0  0  0  0  0
   10.1783   46.9400  131.6485 O   0  0  0  0  0  0  0  0  0  0  0  0
    8.7777   48.6962  132.2076 N   0  0  0  0  0  0  0  0  0  0  0  0
    8.0750   49.1262  132.8796 H   0  0  0  0  0  0  0  0  0  0  0  0
    8.9447   46.6349  133.6494 C   0  0  0  0  0  0  0  0  0  0  0  0
    9.2702   44.0213  132.9221 C   0  0  0  0  0  0  0  0  0  0  0  0
    8.6162   43.0515  133.5700 O   0  0  0  0  0  0  0  0  0  0  0  0
    9.1076   45.3344  133.2863 N   0  0  0  0  0  0  0  0  0  0  0  0
    8.5523   44.9191  134.4511 H   0  0  0  0  0  0  0  0  0  0  0  0
   10.1047   43.3821  131.8654 C   0  0  0  0  0  0  0  0  0  0  0  0
    9.2087   43.8972  129.5810 C   0  0  0  0  0  0  0  0  0  0  0  0
    8.5288   42.8523  129.6318 O   0  0  0  0  0  0  0  0  0  0  0  0
   10.0397   44.2469  130.6635 N   0  0  0  0  0  0  0  0  0  0  0  0
   10.6084   45.1137  130.6070 H   0  0  0  0  0  0  0  0  0  0  0  0
    9.1320   44.7630  128.3884 C   0  0  0  0  0  0  0  0  0  0  0  0
    6.3378   47.1156  129.6898 C   0  0  0  0  0  0  0  0  0  0  0  0
    7.3143   45.9979  129.6520 C   0  0  0  0  0  0  0  0  0  0  0  0
    7.3834   45.2195  130.6392 O   0  0  0  0  0  0  0  0  0  0  0  0
    8.1412   45.8094  128.5465 N   0  0  0  0  0  0  0  0  0  0  0  0
    8.0807   46.4694  127.7080 H   0  0  0  0  0  0  0  0  0  0  0  0
   10.4617   45.4774  128.1696 C   0  0  0  0  0  0  0  0  0  0  0  0
   11.5448   44.6180  128.2313 O   0  0  0  0  0  0  0  0  0  0  0  0
   11.3460   43.6734  128.1550 H   0  0  0  0  0  0  0  0  0  0  0  0
   11.4507   42.9127  132.1682 C   0  0  0  0  0  0  0  0  0  0  0  0
   11.9035   43.3888  133.5281 C   0  0  0  0  0  0  0  0  0  0  0  0
   11.3901   41.3671  132.2025 C   0  0  0  0  0  0  0  0  0  0  0  0
    9.6396   47.3262  134.7598 C   0  0  0  0  0  0  0  0  0  0  0  0
   10.7582   48.2335  134.4706 C   0  0  0  0  0  0  0  0  0  0  0  0
   12.0904   47.8153  134.9491 C   0  0  0  0  0  0  0  0  0  0  0  0
   12.4637   48.6989  136.0615 N   0  0  0  0  0  0  0  0  0  0  0  0
   13.6445   48.7061  136.5837 C   0  0  0  0  0  0  0  0  0  0  0  0
   14.6760   47.8529  136.1126 N   0  0  0  0  0  0  0  0  0  0  0  0
   13.9134   49.5867  137.6491 N   0  0  0  0  0  0  0  0  0  0  0  0
   14.8399   46.8926  136.4434 H   0  0  0  0  0  0  0  0  0  0  0  0
   15.3291   48.2294  135.3657 H   0  0  0  0  0  0  0  0  0  0  0  0
   14.8757   49.7006  138.0482 H   0  0  0  0  0  0  0  0  0  0  0  0
   13.1537   50.1608  138.0812 H   0  0  0  0  0  0  0  0  0  0  0  0
    9.0788   49.5220  131.0618 C   0  0  0  0  0  0  0  0  0  0  0  0
    7.8656   50.0896  130.4967 C   0  0  0  0  0  0  0  0  0  0  0  0
    6.8103   50.1929  131.1328 O   0  0  0  0  0  0  0  0  0  0  0  0
    7.8871   50.5442  129.1470 N   0  0  0  0  0  0  0  0  0  0  0  0
    8.7747   50.4683  128.6158 H   0  0  0  0  0  0  0  0  0  0  0  0
    6.7492   51.1081  128.4473 C   0  0  0  0  0  0  0  0  0  0  0  0
    7.0159   52.5403  128.1230 C   0  0  0  0  0  0  0  0  0  0  0  0
    7.0572   53.4194  129.0329 O   0  0  0  0  0  0  0  0  0  0  0  0
    7.2273   52.9361  126.7990 N   0  0  0  0  0  0  0  0  0  0  0  0
    7.2066   52.2462  126.0323 H   0  0  0  0  0  0  0  0  0  0  0  0
    7.4798   54.3276  126.5038 C   0  0  0  0  0  0  0  0  0  0  0  0
    6.2683   55.1585  126.4410 C   0  0  0  0  0  0  0  0  0  0  0  0
    6.2768   56.3087  126.9314 O   0  0  0  0  0  0  0  0  0  0  0  0
    5.1044   54.6669  125.8307 N   0  0  0  0  0  0  0  0  0  0  0  0
    5.1540   53.6763  125.4230 H   0  0  0  0  0  0  0  0  0  0  0  0
    3.8487   55.3912  125.7093 C   0  0  0  0  0  0  0  0  0  0  0  0
    2.7406   54.4281  125.8013 C   0  0  0  0  0  0  0  0  0  0  0  0
    2.6116   53.3837  124.8744 N   0  0  0  0  0  0  0  0  0  0  0  0
    1.9027   54.5516  126.7283 O   0  0  0  0  0  0  0  0  0  0  0  0
    2.2580   53.5389  123.9149 H   0  0  0  0  0  0  0  0  0  0  0  0
    2.8695   52.3876  125.1237 H   0  0  0  0  0  0  0  0  0  0  0  0
    3.7323   56.1128  124.4014 C   0  0  0  0  0  0  0  0  0  0  0  0
    4.0817   55.2562  123.3756 O   0  0  0  0  0  0  0  0  0  0  0  0
    4.8543   55.5312  122.8397 H   0  0  0  0  0  0  0  0  0  0  0  0
    8.3585   54.4841  125.2694 C   0  0  0  0  0  0  0  0  0  0  0  0
    9.5248   55.1520  125.5535 O   0  0  0  0  0  0  0  0  0  0  0  0
   10.0163   55.3541  124.7027 H   0  0  0  0  0  0  0  0  0  0  0  0
    5.4857   51.0776  129.2871 C   0  0  0  0  0  0  0  0  0  0  0  0
    4.8266   49.8547  129.1721 O   0  0  0  0  0  0  0  0  0  0  0  0
    5.0150   49.2308  129.9292 H   0  0  0  0  0  0  0  0  0  0  0  0
    9.8256   48.6721  130.0077 C   0  0  0  0  0  0  0  0  0  0  0  0
   10.9980   49.3669  129.7146 O   0  0  0  0  0  0  0  0  0  0  0  0
   10.9799   49.7574  128.8286 H   0  0  0  0  0  0  0  0  0  0  0  0
 16 17  1  0  0  0
 17 18  2  0  0  0
 17 19  1  0  0  0
 19 15  1  0  0  0
 15 21  1  0  0  0
 21 22  1  0  0  0
 15 11  1  0  0  0
 11 12  2  0  0  0
 11 13  1  0  0  0
 13 10  1  0  0  0
 10 24  1  0  0  0
 24 25  1  0  0  0
 24 26  1  0  0  0
 10  6  1  0  0  0
  6  7  2  0  0  0
  6  8  1  0  0  0
  8  5  1  0  0  0
  5 27  1  0  0  0
 27 28  1  0  0  0
 28 29  1  0  0  0
 29 30  1  0  0  0
 30 31  2  0  0  0
 31 32  1  0  0  0
 31 33  1  0  0  0
  5  1  1  0  0  0
  1  2  2  0  0  0
  1  3  1  0  0  0
  3 38  1  0  0  0
 38 68  1  0  0  0
 68 69  1  0  0  0
 38 39  1  0  0  0
 39 40  2  0  0  0
 39 41  1  0  0  0
 41 43  1  0  0  0
 43 65  1  0  0  0
 65 66  1  0  0  0
 43 44  1  0  0  0
 44 45  2  0  0  0
 44 46  1  0  0  0
 46 48  1  0  0  0
 48 62  1  0  0  0
 62 63  1  0  0  0
 48 49  1  0  0  0
 49 50  2  0  0  0
 49 51  1  0  0  0
 51 53  1  0  0  0
 53 59  1  0  0  0
 59 60  1  0  0  0
 53 54  1  0  0  0
 54 55  1  0  0  0
 54 56  2  0  0  0
 19 20  1  0  0  0
 22 23  1  0  0  0
 13 14  1  0  0  0
  8  9  1  0  0  0
 32 34  1  0  0  0
 32 35  1  0  0  0
 33 36  1  0  0  0
 33 37  1  0  0  0
  3  4  1  0  0  0
 69 70  1  0  0  0
 41 42  1  0  0  0
 66 67  1  0  0  0
 46 47  1  0  0  0
 63 64  1  0  0  0
 51 52  1  0  0  0
 60 61  1  0  0  0
 55 57  1  0  0  0
 55 58  1  0  0  0
M  END
> <minimizedAffinity>
1.75418

> <CNNscore>
0.4773742259

> <CNNaffinity>
7.6280722618

> <CNN_VS>
3.6414451599

> <CNNaffinity_variance>
0.5329159498

$$$$
[H]OC([H])([H])[C@@]([H])(C(=O)N([H])[H])N([H])C(=O)[C@@]([H])(N([H])C(=O)[C@@]([H])(N([H])C(=O)[C@@]([H])(N([H])C(=O)[C@@]([H])(N([H])C(=O)[C@@]([H])(N([H])C(=O)[C@@]([H])(N([H])C(=O)C([H])([H])[H])C([H])([H])O[H])C([H])(C([H])([H])[H])C([H])([H])[H])C([H])([H])C([H])([H])C([H])([H])N=C(N([H])[H])N([H])[H])C([H])([H])O[H])C([H])([H])O[H])C([H])([H])O[H]


 70 69  0  0  0  0  0  0  0  0999 V2000
    8.4434   46.2291  129.0965 C   0  0  0  0  0  0  0  0  0  0  0  0
    7.7415   45.3395  128.6663 O   0  0  0  0  0  0  0  0  0  0  0  0
    8.1103   47.5559  129.2227 N   0  0  0  0  0  0  0  0  0  0  0  0
    8.7617   48.3075  129.5980 H   0  0  0  0  0  0  0  0  0  0  0  0
    9.8849   45.7990  129.5682 C   0  0  0  0  0  0  0  0  0  0  0  0
    9.5216   43.4169  130.8563 C   0  0  0  0  0  0  0  0  0  0  0  0
    9.5635   42.2661  130.1767 O   0  0  0  0  0  0  0  0  0  0  0  0
    9.7040   44.6140  130.2106 N   0  0  0  0  0  0  0  0  0  0  0  0
    9.4955   43.9827  129.0292 H   0  0  0  0  0  0  0  0  0  0  0  0
    9.2526   43.0931  132.2861 C   0  0  0  0  0  0  0  0  0  0  0  0
    9.8863   44.9523  133.8445 C   0  0  0  0  0  0  0  0  0  0  0  0
   10.9870   44.3956  134.0320 O   0  0  0  0  0  0  0  0  0  0  0  0
    8.9418   44.3656  132.9795 N   0  0  0  0  0  0  0  0  0  0  0  0
    8.0252   44.8323  132.8377 H   0  0  0  0  0  0  0  0  0  0  0  0
    9.5847   46.2260  134.5261 C   0  0  0  0  0  0  0  0  0  0  0  0
   10.0168   49.4642  132.4374 C   0  0  0  0  0  0  0  0  0  0  0  0
   10.2856   48.4106  133.4482 C   0  0  0  0  0  0  0  0  0  0  0  0
   11.3010   48.5216  134.1844 O   0  0  0  0  0  0  0  0  0  0  0  0
    9.4327   47.3172  133.5839 N   0  0  0  0  0  0  0  0  0  0  0  0
    8.5699   47.2245  132.9600 H   0  0  0  0  0  0  0  0  0  0  0  0
    8.2547   46.1256  135.2660 C   0  0  0  0  0  0  0  0  0  0  0  0
    7.2196   45.7089  134.4472 O   0  0  0  0  0  0  0  0  0  0  0  0
    7.4763   45.3022  133.6067 H   0  0  0  0  0  0  0  0  0  0  0  0
    8.3505   42.0052  132.6417 C   0  0  0  0  0  0  0  0  0  0  0  0
    7.6893   42.2565  133.9762 C   0  0  0  0  0  0  0  0  0  0  0  0
    7.2424   41.9698  131.5625 C   0  0  0  0  0  0  0  0  0  0  0  0
   10.7213   46.0233  128.3666 C   0  0  0  0  0  0  0  0  0  0  0  0
   11.8424   45.1193  128.0767 C   0  0  0  0  0  0  0  0  0  0  0  0
   13.0037   45.1926  128.9847 C   0  0  0  0  0  0  0  0  0  0  0  0
   12.8967   44.0803  129.9382 N   0  0  0  0  0  0  0  0  0  0  0  0
   12.8019   44.2584  131.2135 C   0  0  0  0  0  0  0  0  0  0  0  0
   12.7919   45.5556  131.7890 N   0  0  0  0  0  0  0  0  0  0  0  0
   12.7045   43.1326  132.0536 N   0  0  0  0  0  0  0  0  0  0  0  0
   13.6324   46.0838  132.0595 H   0  0  0  0  0  0  0  0  0  0  0  0
   11.8512   46.0175  131.9555 H   0  0  0  0  0  0  0  0  0  0  0  0
   12.5328   43.2196  133.0838 H   0  0  0  0  0  0  0  0  0  0  0  0
   12.8020   42.1636  131.6730 H   0  0  0  0  0  0  0  0  0  0  0  0
    6.8049   48.0433  128.8430 C   0  0  0  0  0  0  0  0  0  0  0  0
    6.5947   49.3979  129.3272 C   0  0  0  0  0  0  0  0  0  0  0  0
    6.0518   49.6502  130.4091 O   0  0  0  0  0  0  0  0  0  0  0  0
    7.0278   50.4881  128.5193 N   0  0  0  0  0  0  0  0  0  0  0  0
    7.4933   50.2778  127.6166 H   0  0  0  0  0  0  0  0  0  0  0  0
    6.8626   51.8871  128.8626 C   0  0  0  0  0  0  0  0  0  0  0  0
    7.1838   52.7380  127.6792 C   0  0  0  0  0  0  0  0  0  0  0  0
    7.6023   52.2252  126.6003 O   0  0  0  0  0  0  0  0  0  0  0  0
    7.0248   54.1255  127.7442 N   0  0  0  0  0  0  0  0  0  0  0  0
    6.6804   54.5774  128.6052 H   0  0  0  0  0  0  0  0  0  0  0  0
    7.3447   54.9332  126.5900 C   0  0  0  0  0  0  0  0  0  0  0  0
    6.1817   55.5889  125.9737 C   0  0  0  0  0  0  0  0  0  0  0  0
    6.2941   56.7427  125.5051 O   0  0  0  0  0  0  0  0  0  0  0  0
    4.9480   54.9240  125.9072 N   0  0  0  0  0  0  0  0  0  0  0  0
    4.9089   53.9352  126.3204 H   0  0  0  0  0  0  0  0  0  0  0  0
    3.7303   55.4676  125.3257 C   0  0  0  0  0  0  0  0  0  0  0  0
    2.8517   54.3503  124.9469 C   0  0  0  0  0  0  0  0  0  0  0  0
    2.9867   53.7134  123.7049 N   0  0  0  0  0  0  0  0  0  0  0  0
    1.9704   53.9682  125.7557 O   0  0  0  0  0  0  0  0  0  0  0  0
    2.6468   54.1406  122.8266 H   0  0  0  0  0  0  0  0  0  0  0  0
    3.4420   52.7615  123.6178 H   0  0  0  0  0  0  0  0  0  0  0  0
    4.0010   56.2848  124.0994 C   0  0  0  0  0  0  0  0  0  0  0  0
    3.3395   57.4930  124.2018 O   0  0  0  0  0  0  0  0  0  0  0  0
    2.6683   57.6676  123.5099 H   0  0  0  0  0  0  0  0  0  0  0  0
    8.1781   54.1551  125.5798 C   0  0  0  0  0  0  0  0  0  0  0  0
    7.4959   53.9483  124.4055 O   0  0  0  0  0  0  0  0  0  0  0  0
    8.0158   53.3250  123.8160 H   0  0  0  0  0  0  0  0  0  0  0  0
    7.7961   52.3190  129.9783 C   0  0  0  0  0  0  0  0  0  0  0  0
    8.1438   51.2452  130.7963 O   0  0  0  0  0  0  0  0  0  0  0  0
    9.0354   50.8522  130.5759 H   0  0  0  0  0  0  0  0  0  0  0  0
    5.7254   47.0896  129.4053 C   0  0  0  0  0  0  0  0  0  0  0  0
    5.0155   46.6196  128.3015 O   0  0  0  0  0  0  0  0  0  0  0  0
    4.1213   46.9888  128.2576 H   0  0  0  0  0  0  0  0  0  0  0  0
 16 17  1  0  0  0
 17 18  2  0  0  0
 17 19  1  0  0  0
 19 15  1  0  0  0
 15 21  1  0  0  0
 21 22  1  0  0  0
 15 11  1  0  0  0
 11 12  2  0  0  0
 11 13  1  0  0  0
 13 10  1  0  0  0
 10 24  1  0  0  0
 24 25  1  0  0  0
 24 26  1  0  0  0
 10  6  1  0  0  0
  6  7  2  0  0  0
  6  8  1  0  0  0
  8  5  1  0  0  0
  5 27  1  0  0  0
 27 28  1  0  0  0
 28 29  1  0  0  0
 29 30  1  0  0  0
 30 31  2  0  0  0
 31 32  1  0  0  0
 31 33  1  0  0  0
  5  1  1  0  0  0
  1  2  2  0  0  0
  1  3  1  0  0  0
  3 38  1  0  0  0
 38 68  1  0  0  0
 68 69  1  0  0  0
 38 39  1  0  0  0
 39 40  2  0  0  0
 39 41  1  0  0  0
 41 43  1  0  0  0
 43 65  1  0  0  0
 65 66  1  0  0  0
 43 44  1  0  0  0
 44 45  2  0  0  0
 44 46  1  0  0  0
 46 48  1  0  0  0
 48 62  1  0  0  0
 62 63  1  0  0  0
 48 49  1  0  0  0
 49 50  2  0  0  0
 49 51  1  0  0  0
 51 53  1  0  0  0
 53 59  1  0  0  0
 59 60  1  0  0  0
 53 54  1  0  0  0
 54 55  1  0  0  0
 54 56  2  0  0  0
 19 20  1  0  0  0
 22 23  1  0  0  0
 13 14  1  0  0  0
  8  9  1  0  0  0
 32 34  1  0  0  0
 32 35  1  0  0  0
 33 36  1  0  0  0
 33 37  1  0  0  0
  3  4  1  0  0  0
 69 70  1  0  0  0
 41 42  1  0  0  0
 66 67  1  0  0  0
 46 47  1  0  0  0
 63 64  1  0  0  0
 51 52  1  0  0  0
 60 61  1  0  0  0
 55 57  1  0  0  0
 55 58  1  0  0  0
M  END
> <minimizedAffinity>
2.46999

> <CNNscore>
0.4324176610

> <CNNaffinity>
7.5358796120

> <CNN_VS>
3.2586474419

> <CNNaffinity_variance>
1.0595014095

$$$$
[H]OC([H])([H])[C@@]([H])(C(=O)N([H])[H])N([H])C(=O)[C@@]([H])(N([H])C(=O)[C@@]([H])(N([H])C(=O)[C@@]([H])(N([H])C(=O)[C@@]([H])(N([H])C(=O)[C@@]([H])(N([H])C(=O)[C@@]([H])(N([H])C(=O)C([H])([H])[H])C([H])([H])O[H])C([H])(C([H])([H])[H])C([H])([H])[H])C([H])([H])C([H])([H])C([H])([H])N=C(N([H])[H])N([H])[H])C([H])([H])O[H])C([H])([H])O[H])C([H])([H])O[H]


 70 69  0  0  0  0  0  0  0  0999 V2000
    7.0933   53.1214  127.5040 C   0  0  0  0  0  0  0  0  0  0  0  0
    6.8703   54.0870  128.2020 O   0  0  0  0  0  0  0  0  0  0  0  0
    7.0723   51.8025  127.8880 N   0  0  0  0  0  0  0  0  0  0  0  0
    7.2837   50.9840  127.2433 H   0  0  0  0  0  0  0  0  0  0  0  0
    7.4299   53.4284  125.9948 C   0  0  0  0  0  0  0  0  0  0  0  0
    5.7043   55.4221  125.2784 C   0  0  0  0  0  0  0  0  0  0  0  0
    5.1047   55.4019  124.0833 O   0  0  0  0  0  0  0  0  0  0  0  0
    6.5711   54.4213  125.6395 N   0  0  0  0  0  0  0  0  0  0  0  0
    6.6376   54.0409  124.3401 H   0  0  0  0  0  0  0  0  0  0  0  0
    5.2511   56.6473  125.9958 C   0  0  0  0  0  0  0  0  0  0  0  0
    2.7458   56.6548  126.0969 C   0  0  0  0  0  0  0  0  0  0  0  0
    2.7212   57.2417  124.9962 O   0  0  0  0  0  0  0  0  0  0  0  0
    3.9808   56.3157  126.6837 N   0  0  0  0  0  0  0  0  0  0  0  0
    3.9901   55.8358  127.6044 H   0  0  0  0  0  0  0  0  0  0  0  0
    1.4791   56.3142  126.7732 C   0  0  0  0  0  0  0  0  0  0  0  0
    1.6978   52.4429  126.7859 C   0  0  0  0  0  0  0  0  0  0  0  0
    1.8146   53.8446  126.3108 C   0  0  0  0  0  0  0  0  0  0  0  0
    2.2824   54.0583  125.1616 O   0  0  0  0  0  0  0  0  0  0  0  0
    1.4150   54.9077  127.1180 N   0  0  0  0  0  0  0  0  0  0  0  0
    1.0162   54.7255  128.0928 H   0  0  0  0  0  0  0  0  0  0  0  0
    1.3654   57.0725  128.0918 C   0  0  0  0  0  0  0  0  0  0  0  0
    2.0427   58.2793  128.0726 O   0  0  0  0  0  0  0  0  0  0  0  0
    2.2880   58.6182  127.1992 H   0  0  0  0  0  0  0  0  0  0  0  0
    6.1785   57.4041  126.8271 C   0  0  0  0  0  0  0  0  0  0  0  0
    7.4779   57.6624  126.1019 C   0  0  0  0  0  0  0  0  0  0  0  0
    5.5134   58.7721  127.1107 C   0  0  0  0  0  0  0  0  0  0  0  0
    8.9089   53.5052  125.9809 C   0  0  0  0  0  0  0  0  0  0  0  0
    9.6057   53.9752  124.7761 C   0  0  0  0  0  0  0  0  0  0  0  0
    9.2641   55.3300  124.3000 C   0  0  0  0  0  0  0  0  0  0  0  0
    8.6723   55.1979  122.9621 N   0  0  0  0  0  0  0  0  0  0  0  0
    8.7177   56.1402  122.0806 C   0  0  0  0  0  0  0  0  0  0  0  0
    9.3516   57.3820  122.3449 N   0  0  0  0  0  0  0  0  0  0  0  0
    8.1221   55.9262  120.8227 N   0  0  0  0  0  0  0  0  0  0  0  0
    8.8934   58.1934  122.7810 H   0  0  0  0  0  0  0  0  0  0  0  0
   10.3721   57.4861  122.0734 H   0  0  0  0  0  0  0  0  0  0  0  0
    8.2090   56.6180  120.0404 H   0  0  0  0  0  0  0  0  0  0  0  0
    7.5675   55.0615  120.6269 H   0  0  0  0  0  0  0  0  0  0  0  0
    6.7488   51.4181  129.2419 C   0  0  0  0  0  0  0  0  0  0  0  0
    7.9303   50.9449  129.9444 C   0  0  0  0  0  0  0  0  0  0  0  0
    8.4319   51.5469  130.9009 O   0  0  0  0  0  0  0  0  0  0  0  0
    8.5452   49.7352  129.5113 N   0  0  0  0  0  0  0  0  0  0  0  0
    8.1191   49.2234  128.7162 H   0  0  0  0  0  0  0  0  0  0  0  0
    9.7381   49.1584  130.1000 C   0  0  0  0  0  0  0  0  0  0  0  0
    9.5672   47.6825  130.2418 C   0  0  0  0  0  0  0  0  0  0  0  0
   10.3686   46.9963  130.9412 O   0  0  0  0  0  0  0  0  0  0  0  0
    8.5100   47.0300  129.6005 N   0  0  0  0  0  0  0  0  0  0  0  0
    7.8342   47.5580  129.0271 H   0  0  0  0  0  0  0  0  0  0  0  0
    8.3630   45.6003  129.7460 C   0  0  0  0  0  0  0  0  0  0  0  0
    8.3168   45.1394  131.1416 C   0  0  0  0  0  0  0  0  0  0  0  0
    7.3073   45.3742  131.8410 O   0  0  0  0  0  0  0  0  0  0  0  0
    9.3994   44.4354  131.6902 N   0  0  0  0  0  0  0  0  0  0  0  0
   10.2374   44.2580  131.0449 H   0  0  0  0  0  0  0  0  0  0  0  0
    9.4710   43.9320  133.0531 C   0  0  0  0  0  0  0  0  0  0  0  0
   10.3080   44.8446  133.8472 C   0  0  0  0  0  0  0  0  0  0  0  0
   10.2353   46.2333  133.6671 N   0  0  0  0  0  0  0  0  0  0  0  0
   11.0964   44.3623  134.6973 O   0  0  0  0  0  0  0  0  0  0  0  0
   10.6702   46.7076  132.8575 H   0  0  0  0  0  0  0  0  0  0  0  0
    9.7316   46.8555  134.3600 H   0  0  0  0  0  0  0  0  0  0  0  0
   10.0768   42.5634  133.1231 C   0  0  0  0  0  0  0  0  0  0  0  0
   10.6843   42.2718  131.9173 O   0  0  0  0  0  0  0  0  0  0  0  0
   10.3241   41.4964  131.4390 H   0  0  0  0  0  0  0  0  0  0  0  0
    9.3962   44.8474  128.9177 C   0  0  0  0  0  0  0  0  0  0  0  0
   10.3192   45.6966  128.3571 O   0  0  0  0  0  0  0  0  0  0  0  0
   10.9014   45.1901  127.7162 H   0  0  0  0  0  0  0  0  0  0  0  0
   10.0138   49.7023  131.4894 C   0  0  0  0  0  0  0  0  0  0  0  0
    9.3291   48.9794  132.4650 O   0  0  0  0  0  0  0  0  0  0  0  0
    9.8958   48.2944  132.9206 H   0  0  0  0  0  0  0  0  0  0  0  0
    5.6580   50.3224  129.2099 C   0  0  0  0  0  0  0  0  0  0  0  0
    6.3032   49.1493  128.8216 O   0  0  0  0  0  0  0  0  0  0  0  0
    6.0615   48.8791  127.9237 H   0  0  0  0  0  0  0  0  0  0  0  0
 16 17  1  0  0  0
 17 18  2  0  0  0
 17 19  1  0  0  0
 19 15  1  0  0  0
 15 21  1  0  0  0
 21 22  1  0  0  0
 15 11  1  0  0  0
 11 12  2  0  0  0
 11 13  1  0  0  0
 13 10  1  0  0  0
 10 24  1  0  0  0
 24 25  1  0  0  0
 24 26  1  0  0  0
 10  6  1  0  0  0
  6  7  2  0  0  0
  6  8  1  0  0  0
  8  5  1  0  0  0
  5 27  1  0  0  0
 27 28  1  0  0  0
 28 29  1  0  0  0
 29 30  1  0  0  0
 30 31  2  0  0  0
 31 32  1  0  0  0
 31 33  1  0  0  0
  5  1  1  0  0  0
  1  2  2  0  0  0
  1  3  1  0  0  0
  3 38  1  0  0  0
 38 68  1  0  0  0
 68 69  1  0  0  0
 38 39  1  0  0  0
 39 40  2  0  0  0
 39 41  1  0  0  0
 41 43  1  0  0  0
 43 65  1  0  0  0
 65 66  1  0  0  0
 43 44  1  0  0  0
 44 45  2  0  0  0
 44 46  1  0  0  0
 46 48  1  0  0  0
 48 62  1  0  0  0
 62 63  1  0  0  0
 48 49  1  0  0  0
 49 50  2  0  0  0
 49 51  1  0  0  0
 51 53  1  0  0  0
 53 59  1  0  0  0
 59 60  1  0  0  0
 53 54  1  0  0  0
 54 55  1  0  0  0
 54 56  2  0  0  0
 19 20  1  0  0  0
 22 23  1  0  0  0
 13 14  1  0  0  0
  8  9  1  0  0  0
 32 34  1  0  0  0
 32 35  1  0  0  0
 33 36  1  0  0  0
 33 37  1  0  0  0
  3  4  1  0  0  0
 69 70  1  0  0  0
 41 42  1  0  0  0
 66 67  1  0  0  0
 46 47  1  0  0  0
 63 64  1  0  0  0
 51 52  1  0  0  0
 60 61  1  0  0  0
 55 57  1  0  0  0
 55 58  1  0  0  0
M  END
> <minimizedAffinity>
1.01546

> <CNNscore>
0.3861159682

> <CNNaffinity>
6.7086839676

> <CNN_VS>
2.5903301239

> <CNNaffinity_variance>
0.1817037910

$$$$
[H]OC([H])([H])[C@@]([H])(C(=O)N([H])[H])N([H])C(=O)[C@@]([H])(N([H])C(=O)[C@@]([H])(N([H])C(=O)[C@@]([H])(N([H])C(=O)[C@@]([H])(N([H])C(=O)[C@@]([H])(N([H])C(=O)[C@@]([H])(N([H])C(=O)C([H])([H])[H])C([H])([H])O[H])C([H])(C([H])([H])[H])C([H])([H])[H])C([H])([H])C([H])([H])C([H])([H])N=C(N([H])[H])N([H])[H])C([H])([H])O[H])C([H])([H])O[H])C([H])([H])O[H]


 70 69  0  0  0  0  0  0  0  0999 V2000
    7.0952   52.9853  127.4537 C   0  0  0  0  0  0  0  0  0  0  0  0
    6.8490   53.9191  128.1863 O   0  0  0  0  0  0  0  0  0  0  0  0
    7.0452   51.6500  127.7728 N   0  0  0  0  0  0  0  0  0  0  0  0
    7.2787   50.8607  127.1000 H   0  0  0  0  0  0  0  0  0  0  0  0
    7.5030   53.3598  125.9777 C   0  0  0  0  0  0  0  0  0  0  0  0
    5.6906   55.2524  125.2038 C   0  0  0  0  0  0  0  0  0  0  0  0
    5.0240   55.1210  124.0521 O   0  0  0  0  0  0  0  0  0  0  0  0
    6.6011   54.3025  125.5937 N   0  0  0  0  0  0  0  0  0  0  0  0
    6.6021   53.8165  124.3283 H   0  0  0  0  0  0  0  0  0  0  0  0
    5.2495   56.5240  125.8440 C   0  0  0  0  0  0  0  0  0  0  0  0
    2.7501   56.6130  126.0234 C   0  0  0  0  0  0  0  0  0  0  0  0
    2.7093   57.1883  124.9171 O   0  0  0  0  0  0  0  0  0  0  0  0
    3.9917   56.2408  126.5753 N   0  0  0  0  0  0  0  0  0  0  0  0
    4.0150   55.7710  127.5008 H   0  0  0  0  0  0  0  0  0  0  0  0
    1.4953   56.3206  126.7431 C   0  0  0  0  0  0  0  0  0  0  0  0
    1.6137   52.4455  126.8101 C   0  0  0  0  0  0  0  0  0  0  0  0
    1.7609   53.8366  126.3131 C   0  0  0  0  0  0  0  0  0  0  0  0
    2.2198   54.0215  125.1553 O   0  0  0  0  0  0  0  0  0  0  0  0
    1.3991   54.9213  127.1093 N   0  0  0  0  0  0  0  0  0  0  0  0
    1.0078   54.7636  128.0914 H   0  0  0  0  0  0  0  0  0  0  0  0
    1.4461   57.0991  128.0538 C   0  0  0  0  0  0  0  0  0  0  0  0
    2.1890   58.2660  128.0088 O   0  0  0  0  0  0  0  0  0  0  0  0
    2.4381   58.5806  127.1275 H   0  0  0  0  0  0  0  0  0  0  0  0
    6.1910   57.3352  126.6052 C   0  0  0  0  0  0  0  0  0  0  0  0
    7.5561   57.3405  125.9590 C   0  0  0  0  0  0  0  0  0  0  0  0
    5.6516   58.7852  126.5867 C   0  0  0  0  0  0  0  0  0  0  0  0
    8.9711   53.5369  126.0608 C   0  0  0  0  0  0  0  0  0  0  0  0
    9.7544   53.7358  124.8340 C   0  0  0  0  0  0  0  0  0  0  0  0
    9.2890   54.7933  123.9156 C   0  0  0  0  0  0  0  0  0  0  0  0
    8.1742   54.2457  123.1313 N   0  0  0  0  0  0  0  0  0  0  0  0
    7.7441   54.7977  122.0462 C   0  0  0  0  0  0  0  0  0  0  0  0
    8.3265   55.9839  121.5287 N   0  0  0  0  0  0  0  0  0  0  0  0
    6.6684   54.2034  121.3590 N   0  0  0  0  0  0  0  0  0  0  0  0
    8.0477   56.9382  121.7936 H   0  0  0  0  0  0  0  0  0  0  0  0
    9.1057   55.8839  120.8154 H   0  0  0  0  0  0  0  0  0  0  0  0
    6.3400   54.5548  120.4279 H   0  0  0  0  0  0  0  0  0  0  0  0
    6.1569   53.3842  121.7600 H   0  0  0  0  0  0  0  0  0  0  0  0
    6.6569   51.2053  129.0908 C   0  0  0  0  0  0  0  0  0  0  0  0
    7.8228   50.9984  129.9341 C   0  0  0  0  0  0  0  0  0  0  0  0
    8.2647   51.8650  130.6974 O   0  0  0  0  0  0  0  0  0  0  0  0
    8.4935   49.7430  129.8783 N   0  0  0  0  0  0  0  0  0  0  0  0
    8.1173   49.0114  129.2467 H   0  0  0  0  0  0  0  0  0  0  0  0
    9.6788   49.4053  130.6420 C   0  0  0  0  0  0  0  0  0  0  0  0
    9.5825   47.9965  131.1256 C   0  0  0  0  0  0  0  0  0  0  0  0
    9.4131   47.0382  130.3161 O   0  0  0  0  0  0  0  0  0  0  0  0
    9.6802   47.7112  132.4907 N   0  0  0  0  0  0  0  0  0  0  0  0
    9.8241   48.4664  133.1786 H   0  0  0  0  0  0  0  0  0  0  0  0
    9.5805   46.3420  132.9405 C   0  0  0  0  0  0  0  0  0  0  0  0
   10.3799   45.3909  132.1540 C   0  0  0  0  0  0  0  0  0  0  0  0
   11.6207   45.5295  132.0848 O   0  0  0  0  0  0  0  0  0  0  0  0
    9.7564   44.3278  131.4835 N   0  0  0  0  0  0  0  0  0  0  0  0
    8.6910   44.2539  131.5802 H   0  0  0  0  0  0  0  0  0  0  0  0
   10.4379   43.3278  130.6761 C   0  0  0  0  0  0  0  0  0  0  0  0
    9.5167   42.8642  129.6271 C   0  0  0  0  0  0  0  0  0  0  0  0
    9.8334   43.0136  128.2692 N   0  0  0  0  0  0  0  0  0  0  0  0
    8.4326   42.3272  129.9633 O   0  0  0  0  0  0  0  0  0  0  0  0
    9.7614   43.9238  127.7834 H   0  0  0  0  0  0  0  0  0  0  0  0
   10.1575   42.1937  127.6831 H   0  0  0  0  0  0  0  0  0  0  0  0
   10.8630   42.1387  131.4825 C   0  0  0  0  0  0  0  0  0  0  0  0
   11.8841   42.5084  132.3360 O   0  0  0  0  0  0  0  0  0  0  0  0
   12.7355   42.0422  132.2037 H   0  0  0  0  0  0  0  0  0  0  0  0
    8.1275   45.9064  133.0797 C   0  0  0  0  0  0  0  0  0  0  0  0
    7.4868   45.8675  131.8651 O   0  0  0  0  0  0  0  0  0  0  0  0
    6.5062   45.7076  132.0034 H   0  0  0  0  0  0  0  0  0  0  0  0
    9.8385   50.2799  131.8717 C   0  0  0  0  0  0  0  0  0  0  0  0
   10.1521   49.5221  132.9989 O   0  0  0  0  0  0  0  0  0  0  0  0
   11.1275   49.5179  133.2142 H   0  0  0  0  0  0  0  0  0  0  0  0
    5.8373   49.9002  128.9635 C   0  0  0  0  0  0  0  0  0  0  0  0
    6.6920   48.9652  128.3818 O   0  0  0  0  0  0  0  0  0  0  0  0
    6.4426   48.7599  127.4689 H   0  0  0  0  0  0  0  0  0  0  0  0
 16 17  1  0  0  0
 17 18  2  0  0  0
 17 19  1  0  0  0
 19 15  1  0  0  0
 15 21  1  0  0  0
 21 22  1  0  0  0
 15 11  1  0  0  0
 11 12  2  0  0  0
 11 13  1  0  0  0
 13 10  1  0  0  0
 10 24  1  0  0  0
 24 25  1  0  0  0
 24 26  1  0  0  0
 10  6  1  0  0  0
  6  7  2  0  0  0
  6  8  1  0  0  0
  8  5  1  0  0  0
  5 27  1  0  0  0
 27 28  1  0  0  0
 28 29  1  0  0  0
 29 30  1  0  0  0
 30 31  2  0  0  0
 31 32  1  0  0  0
 31 33  1  0  0  0
  5  1  1  0  0  0
  1  2  2  0  0  0
  1  3  1  0  0  0
  3 38  1  0  0  0
 38 68  1  0  0  0
 68 69  1  0  0  0
 38 39  1  0  0  0
 39 40  2  0  0  0
 39 41  1  0  0  0
 41 43  1  0  0  0
 43 65  1  0  0  0
 65 66  1  0  0  0
 43 44  1  0  0  0
 44 45  2  0  0  0
 44 46  1  0  0  0
 46 48  1  0  0  0
 48 62  1  0  0  0
 62 63  1  0  0  0
 48 49  1  0  0  0
 49 50  2  0  0  0
 49 51  1  0  0  0
 51 53  1  0  0  0
 53 59  1  0  0  0
 59 60  1  0  0  0
 53 54  1  0  0  0
 54 55  1  0  0  0
 54 56  2  0  0  0
 19 20  1  0  0  0
 22 23  1  0  0  0
 13 14  1  0  0  0
  8  9  1  0  0  0
 32 34  1  0  0  0
 32 35  1  0  0  0
 33 36  1  0  0  0
 33 37  1  0  0  0
  3  4  1  0  0  0
 69 70  1  0  0  0
 41 42  1  0  0  0
 66 67  1  0  0  0
 46 47  1  0  0  0
 63 64  1  0  0  0
 51 52  1  0  0  0
 60 61  1  0  0  0
 55 57  1  0  0  0
 55 58  1  0  0  0
M  END
> <minimizedAffinity>
1.12390

> <CNNscore>
0.3787150383

> <CNNaffinity>
6.8746767044

> <CNN_VS>
2.6035435200

> <CNNaffinity_variance>
0.2000486106

$$$$
[H]OC([H])([H])[C@@]([H])(C(=O)N([H])[H])N([H])C(=O)[C@@]([H])(N([H])C(=O)[C@@]([H])(N([H])C(=O)[C@@]([H])(N([H])C(=O)[C@@]([H])(N([H])C(=O)[C@@]([H])(N([H])C(=O)[C@@]([H])(N([H])C(=O)C([H])([H])[H])C([H])([H])O[H])C([H])(C([H])([H])[H])C([H])([H])[H])C([H])([H])C([H])([H])C([H])([H])N=C(N([H])[H])N([H])[H])C([H])([H])O[H])C([H])([H])O[H])C([H])([H])O[H]


 70 69  0  0  0  0  0  0  0  0999 V2000
    9.2746   46.9461  128.6884 C   0  0  0  0  0  0  0  0  0  0  0  0
    9.2250   46.4023  127.6063 O   0  0  0  0  0  0  0  0  0  0  0  0
    8.3460   47.8052  129.2242 N   0  0  0  0  0  0  0  0  0  0  0  0
    8.4332   48.2688  130.1769 H   0  0  0  0  0  0  0  0  0  0  0  0
   10.5401   46.6121  129.5672 C   0  0  0  0  0  0  0  0  0  0  0  0
    9.7488   47.0636  132.1432 C   0  0  0  0  0  0  0  0  0  0  0  0
   10.3948   47.9535  132.9040 O   0  0  0  0  0  0  0  0  0  0  0  0
   10.1451   46.8359  130.8492 N   0  0  0  0  0  0  0  0  0  0  0  0
   11.3164   47.4614  131.1217 H   0  0  0  0  0  0  0  0  0  0  0  0
    8.6552   46.4700  132.9636 C   0  0  0  0  0  0  0  0  0  0  0  0
    9.1020   44.0974  132.2867 C   0  0  0  0  0  0  0  0  0  0  0  0
   10.2252   44.1746  132.8242 O   0  0  0  0  0  0  0  0  0  0  0  0
    8.2380   45.2100  132.3040 N   0  0  0  0  0  0  0  0  0  0  0  0
    7.3091   45.1381  131.8456 H   0  0  0  0  0  0  0  0  0  0  0  0
    8.6840   42.8373  131.6421 C   0  0  0  0  0  0  0  0  0  0  0  0
    6.2271   41.1321  134.1101 C   0  0  0  0  0  0  0  0  0  0  0  0
    7.4889   41.6870  133.5589 C   0  0  0  0  0  0  0  0  0  0  0  0
    8.5335   41.6297  134.2596 O   0  0  0  0  0  0  0  0  0  0  0  0
    7.5220   42.2616  132.2900 N   0  0  0  0  0  0  0  0  0  0  0  0
    6.6353   42.3083  131.6950 H   0  0  0  0  0  0  0  0  0  0  0  0
    8.2701   43.0968  130.1972 C   0  0  0  0  0  0  0  0  0  0  0  0
    9.1799   42.5935  129.2837 O   0  0  0  0  0  0  0  0  0  0  0  0
    9.8138   41.9455  129.6242 H   0  0  0  0  0  0  0  0  0  0  0  0
    8.7974   46.3467  134.4088 C   0  0  0  0  0  0  0  0  0  0  0  0
    8.6023   47.6786  135.0936 C   0  0  0  0  0  0  0  0  0  0  0  0
    7.6755   45.3965  134.8909 C   0  0  0  0  0  0  0  0  0  0  0  0
   11.0150   45.3242  129.0109 C   0  0  0  0  0  0  0  0  0  0  0  0
   12.2203   44.6898  129.5612 C   0  0  0  0  0  0  0  0  0  0  0  0
   12.7680   45.2734  130.8013 C   0  0  0  0  0  0  0  0  0  0  0  0
   12.7958   44.2149  131.8194 N   0  0  0  0  0  0  0  0  0  0  0  0
   12.6457   44.4518  133.0797 C   0  0  0  0  0  0  0  0  0  0  0  0
   12.4387   45.7657  133.5744 N   0  0  0  0  0  0  0  0  0  0  0  0
   12.6876   43.3747  133.9856 N   0  0  0  0  0  0  0  0  0  0  0  0
   13.1893   46.4231  133.8254 H   0  0  0  0  0  0  0  0  0  0  0  0
   11.4384   46.0980  133.6973 H   0  0  0  0  0  0  0  0  0  0  0  0
   12.4802   43.4963  135.0056 H   0  0  0  0  0  0  0  0  0  0  0  0
   12.9302   42.4088  133.6666 H   0  0  0  0  0  0  0  0  0  0  0  0
    7.1407   48.1522  128.5081 C   0  0  0  0  0  0  0  0  0  0  0  0
    6.6527   49.4598  128.9146 C   0  0  0  0  0  0  0  0  0  0  0  0
    5.7722   49.6149  129.7687 O   0  0  0  0  0  0  0  0  0  0  0  0
    7.2077   50.6187  128.2998 N   0  0  0  0  0  0  0  0  0  0  0  0
    7.9542   50.4905  127.5911 H   0  0  0  0  0  0  0  0  0  0  0  0
    6.8024   51.9807  128.5877 C   0  0  0  0  0  0  0  0  0  0  0  0
    7.2448   52.8824  127.4838 C   0  0  0  0  0  0  0  0  0  0  0  0
    7.5895   52.4167  126.3584 O   0  0  0  0  0  0  0  0  0  0  0  0
    7.2843   54.2666  127.6767 N   0  0  0  0  0  0  0  0  0  0  0  0
    7.0051   54.6818  128.5788 H   0  0  0  0  0  0  0  0  0  0  0  0
    7.7193   55.1233  126.5979 C   0  0  0  0  0  0  0  0  0  0  0  0
    6.6240   55.6563  125.7743 C   0  0  0  0  0  0  0  0  0  0  0  0
    6.3881   56.8843  125.7723 O   0  0  0  0  0  0  0  0  0  0  0  0
    5.8450   54.7932  124.9891 N   0  0  0  0  0  0  0  0  0  0  0  0
    6.0934   53.7506  125.0251 H   0  0  0  0  0  0  0  0  0  0  0  0
    4.7378   55.2003  124.1378 C   0  0  0  0  0  0  0  0  0  0  0  0
    3.5118   55.2410  124.9496 C   0  0  0  0  0  0  0  0  0  0  0  0
    3.1457   54.1576  125.7611 N   0  0  0  0  0  0  0  0  0  0  0  0
    2.7888   56.2669  124.9086 O   0  0  0  0  0  0  0  0  0  0  0  0
    2.7339   53.2922  125.3723 H   0  0  0  0  0  0  0  0  0  0  0  0
    3.2743   54.1848  126.8117 H   0  0  0  0  0  0  0  0  0  0  0  0
    4.5138   54.2492  123.0019 C   0  0  0  0  0  0  0  0  0  0  0  0
    3.1936   53.8431  123.0012 O   0  0  0  0  0  0  0  0  0  0  0  0
    3.0467   52.8821  123.1221 H   0  0  0  0  0  0  0  0  0  0  0  0
    8.8061   54.4585  125.7628 C   0  0  0  0  0  0  0  0  0  0  0  0
    8.6943   54.7771  124.4313 O   0  0  0  0  0  0  0  0  0  0  0  0
    9.3365   54.2241  123.8947 H   0  0  0  0  0  0  0  0  0  0  0  0
    7.4311   52.5098  129.8633 C   0  0  0  0  0  0  0  0  0  0  0  0
    7.7377   51.4763  130.7471 O   0  0  0  0  0  0  0  0  0  0  0  0
    8.6972   51.2000  130.7155 H   0  0  0  0  0  0  0  0  0  0  0  0
    6.0697   47.0666  128.7643 C   0  0  0  0  0  0  0  0  0  0  0  0
    6.3910   46.4925  129.9933 O   0  0  0  0  0  0  0  0  0  0  0  0
    6.7322   45.5913  129.8979 H   0  0  0  0  0  0  0  0  0  0  0  0
 16 17  1  0  0  0
 17 18  2  0  0  0
 17 19  1  0  0  0
 19 15  1  0  0  0
 15 21  1  0  0  0
 21 22  1  0  0  0
 15 11  1  0  0  0
 11 12  2  0  0  0
 11 13  1  0  0  0
 13 10  1  0  0  0
 10 24  1  0  0  0
 24 25  1  0  0  0
 24 26  1  0  0  0
 10  6  1  0  0  0
  6  7  2  0  0  0
  6  8  1  0  0  0
  8  5  1  0  0  0
  5 27  1  0  0  0
 27 28  1  0  0  0
 28 29  1  0  0  0
 29 30  1  0  0  0
 30 31  2  0  0  0
 31 32  1  0  0  0
 31 33  1  0  0  0
  5  1  1  0  0  0
  1  2  2  0  0  0
  1  3  1  0  0  0
  3 38  1  0  0  0
 38 68  1  0  0  0
 68 69  1  0  0  0
 38 39  1  0  0  0
 39 40  2  0  0  0
 39 41  1  0  0  0
 41 43  1  0  0  0
 43 65  1  0  0  0
 65 66  1  0  0  0
 43 44  1  0  0  0
 44 45  2  0  0  0
 44 46  1  0  0  0
 46 48  1  0  0  0
 48 62  1  0  0  0
 62 63  1  0  0  0
 48 49  1  0  0  0
 49 50  2  0  0  0
 49 51  1  0  0  0
 51 53  1  0  0  0
 53 59  1  0  0  0
 59 60  1  0  0  0
 53 54  1  0  0  0
 54 55  1  0  0  0
 54 56  2  0  0  0
 19 20  1  0  0  0
 22 23  1  0  0  0
 13 14  1  0  0  0
  8  9  1  0  0  0
 32 34  1  0  0  0
 32 35  1  0  0  0
 33 36  1  0  0  0
 33 37  1  0  0  0
  3  4  1  0  0  0
 69 70  1  0  0  0
 41 42  1  0  0  0
 66 67  1  0  0  0
 46 47  1  0  0  0
 63 64  1  0  0  0
 51 52  1  0  0  0
 60 61  1  0  0  0
 55 57  1  0  0  0
 55 58  1  0  0  0
M  END
> <minimizedAffinity>
1.99461

> <CNNscore>
0.3786214590

> <CNNaffinity>
7.0463590622

> <CNN_VS>
2.6679027081

> <CNNaffinity_variance>
0.2365221977

$$$$
[H]OC([H])([H])[C@@]([H])(C(=O)N([H])[H])N([H])C(=O)[C@@]([H])(N([H])C(=O)[C@@]([H])(N([H])C(=O)[C@@]([H])(N([H])C(=O)[C@@]([H])(N([H])C(=O)[C@@]([H])(N([H])C(=O)[C@@]([H])(N([H])C(=O)C([H])([H])[H])C([H])([H])O[H])C([H])(C([H])([H])[H])C([H])([H])[H])C([H])([H])C([H])([H])C([H])([H])N=C(N([H])[H])N([H])[H])C([H])([H])O[H])C([H])([H])O[H])C([H])([H])O[H]


 70 69  0  0  0  0  0  0  0  0999 V2000
    9.4597   47.8382  133.5244 C   0  0  0  0  0  0  0  0  0  0  0  0
    8.6995   48.1468  134.4165 O   0  0  0  0  0  0  0  0  0  0  0  0
    9.6047   48.4636  132.3098 N   0  0  0  0  0  0  0  0  0  0  0  0
   10.2798   48.1535  131.5493 H   0  0  0  0  0  0  0  0  0  0  0  0
   10.3818   46.5915  133.8088 C   0  0  0  0  0  0  0  0  0  0  0  0
    8.7322   44.4277  133.5588 C   0  0  0  0  0  0  0  0  0  0  0  0
    7.4515   44.5053  133.9354 O   0  0  0  0  0  0  0  0  0  0  0  0
    9.5617   45.5138  133.6837 N   0  0  0  0  0  0  0  0  0  0  0  0
    8.6522   46.0850  134.5108 H   0  0  0  0  0  0  0  0  0  0  0  0
    8.9768   43.0468  133.0541 C   0  0  0  0  0  0  0  0  0  0  0  0
    8.9423   44.0177  130.7426 C   0  0  0  0  0  0  0  0  0  0  0  0
    9.6633   44.9532  131.1443 O   0  0  0  0  0  0  0  0  0  0  0  0
    8.5408   43.0070  131.6381 N   0  0  0  0  0  0  0  0  0  0  0  0
    7.9331   42.2379  131.2957 H   0  0  0  0  0  0  0  0  0  0  0  0
    8.5205   43.9736  129.3291 C   0  0  0  0  0  0  0  0  0  0  0  0
    6.4415   47.2437  129.1909 C   0  0  0  0  0  0  0  0  0  0  0  0
    7.0559   46.0037  129.7282 C   0  0  0  0  0  0  0  0  0  0  0  0
    6.8338   45.6870  130.9264 O   0  0  0  0  0  0  0  0  0  0  0  0
    7.8641   45.2014  128.9253 N   0  0  0  0  0  0  0  0  0  0  0  0
    8.0507   45.4698  127.9077 H   0  0  0  0  0  0  0  0  0  0  0  0
    9.7374   43.8330  128.4204 C   0  0  0  0  0  0  0  0  0  0  0  0
    9.7491   42.6353  127.7268 O   0  0  0  0  0  0  0  0  0  0  0  0
    8.9105   42.1521  127.6938 H   0  0  0  0  0  0  0  0  0  0  0  0
   10.2577   42.3908  133.2836 C   0  0  0  0  0  0  0  0  0  0  0  0
   11.0203   42.2120  131.9923 C   0  0  0  0  0  0  0  0  0  0  0  0
   11.0844   43.3270  134.1970 C   0  0  0  0  0  0  0  0  0  0  0  0
   11.5922   46.8675  133.0011 C   0  0  0  0  0  0  0  0  0  0  0  0
   12.4975   45.7680  132.6409 C   0  0  0  0  0  0  0  0  0  0  0  0
   12.1881   45.0364  131.3969 C   0  0  0  0  0  0  0  0  0  0  0  0
   13.4604   44.5990  130.8072 N   0  0  0  0  0  0  0  0  0  0  0  0
   13.6357   44.4751  129.5340 C   0  0  0  0  0  0  0  0  0  0  0  0
   12.6008   44.7584  128.6052 N   0  0  0  0  0  0  0  0  0  0  0  0
   14.8899   44.0484  129.0569 N   0  0  0  0  0  0  0  0  0  0  0  0
   11.8928   44.0811  128.2914 H   0  0  0  0  0  0  0  0  0  0  0  0
   12.5506   45.7385  128.2015 H   0  0  0  0  0  0  0  0  0  0  0  0
   15.1163   44.0195  128.0341 H   0  0  0  0  0  0  0  0  0  0  0  0
   15.6434   43.7428  129.7145 H   0  0  0  0  0  0  0  0  0  0  0  0
    8.8248   49.6294  131.9659 C   0  0  0  0  0  0  0  0  0  0  0  0
    8.5596   49.6746  130.5372 C   0  0  0  0  0  0  0  0  0  0  0  0
    9.0838   48.8987  129.7297 O   0  0  0  0  0  0  0  0  0  0  0  0
    7.6592   50.6595  130.0393 N   0  0  0  0  0  0  0  0  0  0  0  0
    7.2102   51.3039  130.7168 H   0  0  0  0  0  0  0  0  0  0  0  0
    7.3201   50.8369  128.6407 C   0  0  0  0  0  0  0  0  0  0  0  0
    7.1482   52.2894  128.3439 C   0  0  0  0  0  0  0  0  0  0  0  0
    6.7683   53.0987  129.2400 O   0  0  0  0  0  0  0  0  0  0  0  0
    7.4075   52.7828  127.0618 N   0  0  0  0  0  0  0  0  0  0  0  0
    7.7241   52.1534  126.3082 H   0  0  0  0  0  0  0  0  0  0  0  0
    7.2314   54.1911  126.7921 C   0  0  0  0  0  0  0  0  0  0  0  0
    6.3666   54.4789  125.6381 C   0  0  0  0  0  0  0  0  0  0  0  0
    6.7099   54.1054  124.4952 O   0  0  0  0  0  0  0  0  0  0  0  0
    5.1574   55.1681  125.8150 N   0  0  0  0  0  0  0  0  0  0  0  0
    4.9101   55.4612  126.8165 H   0  0  0  0  0  0  0  0  0  0  0  0
    4.2225   55.5114  124.7546 C   0  0  0  0  0  0  0  0  0  0  0  0
    3.9892   56.9634  124.7864 C   0  0  0  0  0  0  0  0  0  0  0  0
    5.0396   57.8592  125.0327 N   0  0  0  0  0  0  0  0  0  0  0  0
    2.8276   57.3974  124.5883 O   0  0  0  0  0  0  0  0  0  0  0  0
    5.4274   58.0068  125.9800 H   0  0  0  0  0  0  0  0  0  0  0  0
    5.4774   58.4263  124.2532 H   0  0  0  0  0  0  0  0  0  0  0  0
    2.9016   54.8229  124.9158 C   0  0  0  0  0  0  0  0  0  0  0  0
    2.8827   54.1499  126.1219 O   0  0  0  0  0  0  0  0  0  0  0  0
    2.7688   53.1787  126.0624 H   0  0  0  0  0  0  0  0  0  0  0  0
    8.5698   54.9140  126.7120 C   0  0  0  0  0  0  0  0  0  0  0  0
    9.1244   54.8253  125.4583 O   0  0  0  0  0  0  0  0  0  0  0  0
   10.0574   55.1934  125.4730 H   0  0  0  0  0  0  0  0  0  0  0  0
    6.0130   50.1581  128.2759 C   0  0  0  0  0  0  0  0  0  0  0  0
    5.1791   50.0282  129.3853 O   0  0  0  0  0  0  0  0  0  0  0  0
    4.4773   50.7372  129.4382 H   0  0  0  0  0  0  0  0  0  0  0  0
    9.5836   50.8979  132.4201 C   0  0  0  0  0  0  0  0  0  0  0  0
   10.3425   50.5164  133.5254 O   0  0  0  0  0  0  0  0  0  0  0  0
   10.0000   50.8897  134.3506 H   0  0  0  0  0  0  0  0  0  0  0  0
 16 17  1  0  0  0
 17 18  2  0  0  0
 17 19  1  0  0  0
 19 15  1  0  0  0
 15 21  1  0  0  0
 21 22  1  0  0  0
 15 11  1  0  0  0
 11 12  2  0  0  0
 11 13  1  0  0  0
 13 10  1  0  0  0
 10 24  1  0  0  0
 24 25  1  0  0  0
 24 26  1  0  0  0
 10  6  1  0  0  0
  6  7  2  0  0  0
  6  8  1  0  0  0
  8  5  1  0  0  0
  5 27  1  0  0  0
 27 28  1  0  0  0
 28 29  1  0  0  0
 29 30  1  0  0  0
 30 31  2  0  0  0
 31 32  1  0  0  0
 31 33  1  0  0  0
  5  1  1  0  0  0
  1  2  2  0  0  0
  1  3  1  0  0  0
  3 38  1  0  0  0
 38 68  1  0  0  0
 68 69  1  0  0  0
 38 39  1  0  0  0
 39 40  2  0  0  0
 39 41  1  0  0  0
 41 43  1  0  0  0
 43 65  1  0  0  0
 65 66  1  0  0  0
 43 44  1  0  0  0
 44 45  2  0  0  0
 44 46  1  0  0  0
 46 48  1  0  0  0
 48 62  1  0  0  0
 62 63  1  0  0  0
 48 49  1  0  0  0
 49 50  2  0  0  0
 49 51  1  0  0  0
 51 53  1  0  0  0
 53 59  1  0  0  0
 59 60  1  0  0  0
 53 54  1  0  0  0
 54 55  1  0  0  0
 54 56  2  0  0  0
 19 20  1  0  0  0
 22 23  1  0  0  0
 13 14  1  0  0  0
  8  9  1  0  0  0
 32 34  1  0  0  0
 32 35  1  0  0  0
 33 36  1  0  0  0
 33 37  1  0  0  0
  3  4  1  0  0  0
 69 70  1  0  0  0
 41 42  1  0  0  0
 66 67  1  0  0  0
 46 47  1  0  0  0
 63 64  1  0  0  0
 51 52  1  0  0  0
 60 61  1  0  0  0
 55 57  1  0  0  0
 55 58  1  0  0  0
M  END
> <minimizedAffinity>
-1.45625

> <CNNscore>
0.3627624512

> <CNNaffinity>
7.4473571777

> <CNN_VS>
2.7016215324

> <CNNaffinity_variance>
0.2996207476

$$$$
[H]OC([H])([H])[C@@]([H])(C(=O)N([H])[H])N([H])C(=O)[C@@]([H])(N([H])C(=O)[C@@]([H])(N([H])C(=O)[C@@]([H])(N([H])C(=O)[C@@]([H])(N([H])C(=O)[C@@]([H])(N([H])C(=O)[C@@]([H])(N([H])C(=O)C([H])([H])[H])C([H])([H])O[H])C([H])(C([H])([H])[H])C([H])([H])[H])C([H])([H])C([H])([H])C([H])([H])N=C(N([H])[H])N([H])[H])C([H])([H])O[H])C([H])([H])O[H])C([H])([H])O[H]


 70 69  0  0  0  0  0  0  0  0999 V2000
    9.3026   47.2745  133.6840 C   0  0  0  0  0  0  0  0  0  0  0  0
    8.4951   47.5645  134.5401 O   0  0  0  0  0  0  0  0  0  0  0  0
    9.5678   47.9703  132.5294 N   0  0  0  0  0  0  0  0  0  0  0  0
   10.2807   47.6747  131.7982 H   0  0  0  0  0  0  0  0  0  0  0  0
   10.1375   45.9628  133.9439 C   0  0  0  0  0  0  0  0  0  0  0  0
    8.7060   43.9692  132.7430 C   0  0  0  0  0  0  0  0  0  0  0  0
    7.5057   43.6178  133.2161 O   0  0  0  0  0  0  0  0  0  0  0  0
    9.4260   44.9704  133.3452 N   0  0  0  0  0  0  0  0  0  0  0  0
    8.6133   44.8740  134.4258 H   0  0  0  0  0  0  0  0  0  0  0  0
    9.0061   43.1011  131.5693 C   0  0  0  0  0  0  0  0  0  0  0  0
    9.0024   44.9806  129.9097 C   0  0  0  0  0  0  0  0  0  0  0  0
    9.9601   45.4972  130.5199 O   0  0  0  0  0  0  0  0  0  0  0  0
    8.4500   43.7686  130.3685 N   0  0  0  0  0  0  0  0  0  0  0  0
    7.6471   43.3519  129.8587 H   0  0  0  0  0  0  0  0  0  0  0  0
    8.4592   45.6407  128.7068 C   0  0  0  0  0  0  0  0  0  0  0  0
    5.0962   46.8840  130.1831 C   0  0  0  0  0  0  0  0  0  0  0  0
    6.5151   46.4526  130.1164 C   0  0  0  0  0  0  0  0  0  0  0  0
    7.1929   46.4311  131.1773 O   0  0  0  0  0  0  0  0  0  0  0  0
    7.0911   46.0772  128.9044 N   0  0  0  0  0  0  0  0  0  0  0  0
    6.5147   46.0939  128.0045 H   0  0  0  0  0  0  0  0  0  0  0  0
    9.2578   46.9015  128.3917 C   0  0  0  0  0  0  0  0  0  0  0  0
   10.5961   46.6394  128.1552 O   0  0  0  0  0  0  0  0  0  0  0  0
   10.8251   45.7167  127.9713 H   0  0  0  0  0  0  0  0  0  0  0  0
   10.3473   42.5685  131.3661 C   0  0  0  0  0  0  0  0  0  0  0  0
   10.7671   41.6879  132.5190 C   0  0  0  0  0  0  0  0  0  0  0  0
   10.2936   41.6902  130.0934 C   0  0  0  0  0  0  0  0  0  0  0  0
   11.5238   46.3662  133.6136 C   0  0  0  0  0  0  0  0  0  0  0  0
   12.0850   46.0433  132.2950 C   0  0  0  0  0  0  0  0  0  0  0  0
   12.3085   44.6139  132.0026 C   0  0  0  0  0  0  0  0  0  0  0  0
   13.4986   44.5131  131.1476 N   0  0  0  0  0  0  0  0  0  0  0  0
   13.4316   44.4431  129.8601 C   0  0  0  0  0  0  0  0  0  0  0  0
   12.1897   44.4613  129.1736 N   0  0  0  0  0  0  0  0  0  0  0  0
   14.6253   44.3476  129.1195 N   0  0  0  0  0  0  0  0  0  0  0  0
   11.6200   43.6293  128.9694 H   0  0  0  0  0  0  0  0  0  0  0  0
   11.8184   45.3992  128.8439 H   0  0  0  0  0  0  0  0  0  0  0  0
   14.6351   44.3812  128.0721 H   0  0  0  0  0  0  0  0  0  0  0  0
   15.5499   44.2382  129.5955 H   0  0  0  0  0  0  0  0  0  0  0  0
    8.8748   49.1976  132.2145 C   0  0  0  0  0  0  0  0  0  0  0  0
    8.7127   49.3491  130.7778 C   0  0  0  0  0  0  0  0  0  0  0  0
    9.4818   48.8384  129.9554 O   0  0  0  0  0  0  0  0  0  0  0  0
    7.6222   50.1251  130.2904 N   0  0  0  0  0  0  0  0  0  0  0  0
    6.9699   50.5449  130.9789 H   0  0  0  0  0  0  0  0  0  0  0  0
    7.3518   50.3808  128.8891 C   0  0  0  0  0  0  0  0  0  0  0  0
    7.0872   51.8353  128.6839 C   0  0  0  0  0  0  0  0  0  0  0  0
    6.6628   52.5618  129.6296 O   0  0  0  0  0  0  0  0  0  0  0  0
    7.3072   52.4228  127.4345 N   0  0  0  0  0  0  0  0  0  0  0  0
    7.6582   51.8627  126.6425 H   0  0  0  0  0  0  0  0  0  0  0  0
    7.0415   53.8313  127.2538 C   0  0  0  0  0  0  0  0  0  0  0  0
    6.5867   54.1887  125.9019 C   0  0  0  0  0  0  0  0  0  0  0  0
    5.5477   54.8688  125.7548 O   0  0  0  0  0  0  0  0  0  0  0  0
    7.3150   53.7721  124.7774 N   0  0  0  0  0  0  0  0  0  0  0  0
    8.2000   53.1951  124.9614 H   0  0  0  0  0  0  0  0  0  0  0  0
    6.9655   54.0609  123.3951 C   0  0  0  0  0  0  0  0  0  0  0  0
    7.9768   54.9709  122.8355 C   0  0  0  0  0  0  0  0  0  0  0  0
    7.9017   55.4043  121.5040 N   0  0  0  0  0  0  0  0  0  0  0  0
    8.9177   55.3603  123.5702 O   0  0  0  0  0  0  0  0  0  0  0  0
    8.1634   54.7948  120.7105 H   0  0  0  0  0  0  0  0  0  0  0  0
    7.5752   56.3807  121.2575 H   0  0  0  0  0  0  0  0  0  0  0  0
    5.6257   54.7203  123.2728 C   0  0  0  0  0  0  0  0  0  0  0  0
    4.6684   53.7611  123.0055 O   0  0  0  0  0  0  0  0  0  0  0  0
    4.1925   53.8641  122.1554 H   0  0  0  0  0  0  0  0  0  0  0  0
    8.2159   54.6832  127.7177 C   0  0  0  0  0  0  0  0  0  0  0  0
    8.6603   55.5244  126.7267 O   0  0  0  0  0  0  0  0  0  0  0  0
    9.5097   55.9721  127.0169 H   0  0  0  0  0  0  0  0  0  0  0  0
    6.1233   49.6390  128.3963 C   0  0  0  0  0  0  0  0  0  0  0  0
    5.0114   49.9086  129.1927 O   0  0  0  0  0  0  0  0  0  0  0  0
    4.4072   50.6040  128.8065 H   0  0  0  0  0  0  0  0  0  0  0  0
    9.6643   50.3898  132.8031 C   0  0  0  0  0  0  0  0  0  0  0  0
   10.6752   49.8328  133.5847 O   0  0  0  0  0  0  0  0  0  0  0  0
   10.5189   49.9625  134.5315 H   0  0  0  0  0  0  0  0  0  0  0  0
 16 17  1  0  0  0
 17 18  2  0  0  0
 17 19  1  0  0  0
 19 15  1  0  0  0
 15 21  1  0  0  0
 21 22  1  0  0  0
 15 11  1  0  0  0
 11 12  2  0  0  0
 11 13  1  0  0  0
 13 10  1  0  0  0
 10 24  1  0  0  0
 24 25  1  0  0  0
 24 26  1  0  0  0
 10  6  1  0  0  0
  6  7  2  0  0  0
  6  8  1  0  0  0
  8  5  1  0  0  0
  5 27  1  0  0  0
 27 28  1  0  0  0
 28 29  1  0  0  0
 29 30  1  0  0  0
 30 31  2  0  0  0
 31 32  1  0  0  0
 31 33  1  0  0  0
  5  1  1  0  0  0
  1  2  2  0  0  0
  1  3  1  0  0  0
  3 38  1  0  0  0
 38 68  1  0  0  0
 68 69  1  0  0  0
 38 39  1  0  0  0
 39 40  2  0  0  0
 39 41  1  0  0  0
 41 43  1  0  0  0
 43 65  1  0  0  0
 65 66  1  0  0  0
 43 44  1  0  0  0
 44 45  2  0  0  0
 44 46  1  0  0  0
 46 48  1  0  0  0
 48 62  1  0  0  0
 62 63  1  0  0  0
 48 49  1  0  0  0
 49 50  2  0  0  0
 49 51  1  0  0  0
 51 53  1  0  0  0
 53 59  1  0  0  0
 59 60  1  0  0  0
 53 54  1  0  0  0
 54 55  1  0  0  0
 54 56  2  0  0  0
 19 20  1  0  0  0
 22 23  1  0  0  0
 13 14  1  0  0  0
  8  9  1  0  0  0
 32 34  1  0  0  0
 32 35  1  0  0  0
 33 36  1  0  0  0
 33 37  1  0  0  0
  3  4  1  0  0  0
 69 70  1  0  0  0
 41 42  1  0  0  0
 66 67  1  0  0  0
 46 47  1  0  0  0
 63 64  1  0  0  0
 51 52  1  0  0  0
 60 61  1  0  0  0
 55 57  1  0  0  0
 55 58  1  0  0  0
M  END
> <minimizedAffinity>
0.36321

> <CNNscore>
0.3411135972

> <CNNaffinity>
7.2383966446

> <CNN_VS>
2.4691154957

> <CNNaffinity_variance>
0.3108541965

$$$$
[H]OC([H])([H])[C@@]([H])(C(=O)N([H])[H])N([H])C(=O)[C@@]([H])(N([H])C(=O)[C@@]([H])(N([H])C(=O)[C@@]([H])(N([H])C(=O)[C@@]([H])(N([H])C(=O)[C@@]([H])(N([H])C(=O)[C@@]([H])(N([H])C(=O)C([H])([H])[H])C([H])([H])O[H])C([H])(C([H])([H])[H])C([H])([H])[H])C([H])([H])C([H])([H])C([H])([H])N=C(N([H])[H])N([H])[H])C([H])([H])O[H])C([H])([H])O[H])C([H])([H])O[H]


 70 69  0  0  0  0  0  0  0  0999 V2000
    7.8005   48.8847  128.8212 C   0  0  0  0  0  0  0  0  0  0  0  0
    6.8055   48.2030  128.7013 O   0  0  0  0  0  0  0  0  0  0  0  0
    7.8761   50.2547  128.7515 N   0  0  0  0  0  0  0  0  0  0  0  0
    8.7742   50.8144  128.8538 H   0  0  0  0  0  0  0  0  0  0  0  0
    9.1402   48.1012  129.0980 C   0  0  0  0  0  0  0  0  0  0  0  0
    9.3855   48.0685  131.8191 C   0  0  0  0  0  0  0  0  0  0  0  0
    9.6350   49.1978  132.4903 O   0  0  0  0  0  0  0  0  0  0  0  0
    9.2620   48.0835  130.4525 N   0  0  0  0  0  0  0  0  0  0  0  0
    9.8321   49.3133  130.4370 H   0  0  0  0  0  0  0  0  0  0  0  0
    9.3024   46.9578  132.8094 C   0  0  0  0  0  0  0  0  0  0  0  0
    8.4060   44.8744  131.7404 C   0  0  0  0  0  0  0  0  0  0  0  0
    7.2546   45.2207  132.0731 O   0  0  0  0  0  0  0  0  0  0  0  0
    9.5069   45.6883  132.0723 N   0  0  0  0  0  0  0  0  0  0  0  0
   10.4619   45.3861  131.7989 H   0  0  0  0  0  0  0  0  0  0  0  0
    8.6053   43.6164  130.9950 C   0  0  0  0  0  0  0  0  0  0  0  0
   11.8410   42.1527  132.5518 C   0  0  0  0  0  0  0  0  0  0  0  0
   10.4715   42.7180  132.4565 C   0  0  0  0  0  0  0  0  0  0  0  0
    9.8091   42.8840  133.5143 O   0  0  0  0  0  0  0  0  0  0  0  0
    9.9248   43.0605  131.2214 N   0  0  0  0  0  0  0  0  0  0  0  0
   10.4884   42.9211  130.3240 H   0  0  0  0  0  0  0  0  0  0  0  0
    7.6185   42.5572  131.4756 C   0  0  0  0  0  0  0  0  0  0  0  0
    7.4433   41.5365  130.5576 O   0  0  0  0  0  0  0  0  0  0  0  0
    8.1131   41.4676  129.8616 H   0  0  0  0  0  0  0  0  0  0  0  0
   10.0445   47.0255  134.0618 C   0  0  0  0  0  0  0  0  0  0  0  0
    9.2645   46.4017  135.1948 C   0  0  0  0  0  0  0  0  0  0  0  0
   11.3366   46.1978  133.8634 C   0  0  0  0  0  0  0  0  0  0  0  0
    9.0353   46.9174  128.2142 C   0  0  0  0  0  0  0  0  0  0  0  0
    9.5800   45.6258  128.6538 C   0  0  0  0  0  0  0  0  0  0  0  0
   11.0431   45.4568  128.5564 C   0  0  0  0  0  0  0  0  0  0  0  0
   11.5626   45.2651  129.9169 N   0  0  0  0  0  0  0  0  0  0  0  0
   12.7244   44.7554  130.1571 C   0  0  0  0  0  0  0  0  0  0  0  0
   13.5908   44.3426  129.1117 N   0  0  0  0  0  0  0  0  0  0  0  0
   13.1408   44.6077  131.4940 N   0  0  0  0  0  0  0  0  0  0  0  0
   13.5816   43.4108  128.6756 H   0  0  0  0  0  0  0  0  0  0  0  0
   14.3026   45.0424  128.7515 H   0  0  0  0  0  0  0  0  0  0  0  0
   14.1067   44.2874  131.7444 H   0  0  0  0  0  0  0  0  0  0  0  0
   12.4929   44.8143  132.2884 H   0  0  0  0  0  0  0  0  0  0  0  0
    6.7002   51.0628  128.5282 C   0  0  0  0  0  0  0  0  0  0  0  0
    7.0606   52.4515  128.2936 C   0  0  0  0  0  0  0  0  0  0  0  0
    7.0256   53.3153  129.1776 O   0  0  0  0  0  0  0  0  0  0  0  0
    7.4687   52.8409  126.9856 N   0  0  0  0  0  0  0  0  0  0  0  0
    7.5092   52.1150  126.2458 H   0  0  0  0  0  0  0  0  0  0  0  0
    7.8323   54.1910  126.6016 C   0  0  0  0  0  0  0  0  0  0  0  0
    6.5994   54.9877  126.3316 C   0  0  0  0  0  0  0  0  0  0  0  0
    6.3378   56.0321  126.9972 O   0  0  0  0  0  0  0  0  0  0  0  0
    5.7081   54.5904  125.3304 N   0  0  0  0  0  0  0  0  0  0  0  0
    5.8919   53.7478  124.7643 H   0  0  0  0  0  0  0  0  0  0  0  0
    4.5178   55.3718  125.0863 C   0  0  0  0  0  0  0  0  0  0  0  0
    3.3931   55.0485  125.9766 C   0  0  0  0  0  0  0  0  0  0  0  0
    2.8247   55.9600  126.6167 O   0  0  0  0  0  0  0  0  0  0  0  0
    2.9540   53.7225  126.1085 N   0  0  0  0  0  0  0  0  0  0  0  0
    3.4742   52.9817  125.5336 H   0  0  0  0  0  0  0  0  0  0  0  0
    1.8575   53.2803  126.9561 C   0  0  0  0  0  0  0  0  0  0  0  0
    1.4056   51.9607  126.4889 C   0  0  0  0  0  0  0  0  0  0  0  0
    0.4034   51.2563  127.1713 N   0  0  0  0  0  0  0  0  0  0  0  0
    1.9318   51.4663  125.4615 O   0  0  0  0  0  0  0  0  0  0  0  0
    0.5857   50.7621  128.0613 H   0  0  0  0  0  0  0  0  0  0  0  0
   -0.5855   51.1995  126.7974 H   0  0  0  0  0  0  0  0  0  0  0  0
    0.6889   54.2170  126.9095 C   0  0  0  0  0  0  0  0  0  0  0  0
    0.0217   54.1736  128.1182 O   0  0  0  0  0  0  0  0  0  0  0  0
   -0.9099   53.8736  128.0764 H   0  0  0  0  0  0  0  0  0  0  0  0
    4.1239   55.3410  123.6151 C   0  0  0  0  0  0  0  0  0  0  0  0
    4.7267   54.3035  122.9462 O   0  0  0  0  0  0  0  0  0  0  0  0
    4.5541   54.3884  121.9616 H   0  0  0  0  0  0  0  0  0  0  0  0
    8.6610   54.2233  125.3309 C   0  0  0  0  0  0  0  0  0  0  0  0
    8.4335   55.3905  124.6036 O   0  0  0  0  0  0  0  0  0  0  0  0
    9.1318   56.0899  124.7489 H   0  0  0  0  0  0  0  0  0  0  0  0
    5.7631   50.9419  129.7522 C   0  0  0  0  0  0  0  0  0  0  0  0
    6.5697   50.5378  130.8150 O   0  0  0  0  0  0  0  0  0  0  0  0
    6.3997   49.6207  131.0750 H   0  0  0  0  0  0  0  0  0  0  0  0
 16 17  1  0  0  0
 17 18  2  0  0  0
 17 19  1  0  0  0
 19 15  1  0  0  0
 15 21  1  0  0  0
 21 22  1  0  0  0
 15 11  1  0  0  0
 11 12  2  0  0  0
 11 13  1  0  0  0
 13 10  1  0  0  0
 10 24  1  0  0  0
 24 25  1  0  0  0
 24 26  1  0  0  0
 10  6  1  0  0  0
  6  7  2  0  0  0
  6  8  1  0  0  0
  8  5  1  0  0  0
  5 27  1  0  0  0
 27 28  1  0  0  0
 28 29  1  0  0  0
 29 30  1  0  0  0
 30 31  2  0  0  0
 31 32  1  0  0  0
 31 33  1  0  0  0
  5  1  1  0  0  0
  1  2  2  0  0  0
  1  3  1  0  0  0
  3 38  1  0  0  0
 38 68  1  0  0  0
 68 69  1  0  0  0
 38 39  1  0  0  0
 39 40  2  0  0  0
 39 41  1  0  0  0
 41 43  1  0  0  0
 43 65  1  0  0  0
 65 66  1  0  0  0
 43 44  1  0  0  0
 44 45  2  0  0  0
 44 46  1  0  0  0
 46 48  1  0  0  0
 48 62  1  0  0  0
 62 63  1  0  0  0
 48 49  1  0  0  0
 49 50  2  0  0  0
 49 51  1  0  0  0
 51 53  1  0  0  0
 53 59  1  0  0  0
 59 60  1  0  0  0
 53 54  1  0  0  0
 54 55  1  0  0  0
 54 56  2  0  0  0
 19 20  1  0  0  0
 22 23  1  0  0  0
 13 14  1  0  0  0
  8  9  1  0  0  0
 32 34  1  0  0  0
 32 35  1  0  0  0
 33 36  1  0  0  0
 33 37  1  0  0  0
  3  4  1  0  0  0
 69 70  1  0  0  0
 41 42  1  0  0  0
 66 67  1  0  0  0
 46 47  1  0  0  0
 63 64  1  0  0  0
 51 52  1  0  0  0
 60 61  1  0  0  0
 55 57  1  0  0  0
 55 58  1  0  0  0
M  END
> <minimizedAffinity>
-2.99178

> <CNNscore>
0.3356063664

> <CNNaffinity>
7.3409433365

> <CNN_VS>
2.4636673927

> <CNNaffinity_variance>
0.1310830414

$$$$
[H]OC([H])([H])[C@@]([H])(C(=O)N([H])[H])N([H])C(=O)[C@@]([H])(N([H])C(=O)[C@@]([H])(N([H])C(=O)[C@@]([H])(N([H])C(=O)[C@@]([H])(N([H])C(=O)[C@@]([H])(N([H])C(=O)[C@@]([H])(N([H])C(=O)C([H])([H])[H])C([H])([H])O[H])C([H])(C([H])([H])[H])C([H])([H])[H])C([H])([H])C([H])([H])C([H])([H])N=C(N([H])[H])N([H])[H])C([H])([H])O[H])C([H])([H])O[H])C([H])([H])O[H]


 70 69  0  0  0  0  0  0  0  0999 V2000
    9.5376   46.6244  129.3876 C   0  0  0  0  0  0  0  0  0  0  0  0
    9.2762   46.6358  130.5711 O   0  0  0  0  0  0  0  0  0  0  0  0
    8.7387   47.0669  128.3612 N   0  0  0  0  0  0  0  0  0  0  0  0
    9.0042   47.0301  127.3324 H   0  0  0  0  0  0  0  0  0  0  0  0
   10.9537   46.0484  129.0029 C   0  0  0  0  0  0  0  0  0  0  0  0
   12.1229   45.3997  131.3858 C   0  0  0  0  0  0  0  0  0  0  0  0
   13.4471   45.5024  131.5406 O   0  0  0  0  0  0  0  0  0  0  0  0
   11.5344   45.7253  130.1895 N   0  0  0  0  0  0  0  0  0  0  0  0
   12.7551   45.6781  129.6020 H   0  0  0  0  0  0  0  0  0  0  0  0
   11.5507   44.9007  132.6683 C   0  0  0  0  0  0  0  0  0  0  0  0
    9.9379   46.0446  134.2101 C   0  0  0  0  0  0  0  0  0  0  0  0
   10.6935   45.7806  135.1671 O   0  0  0  0  0  0  0  0  0  0  0  0
   10.2866   45.6366  132.9076 N   0  0  0  0  0  0  0  0  0  0  0  0
    9.6461   45.8533  132.1196 H   0  0  0  0  0  0  0  0  0  0  0  0
    8.6863   46.7890  134.4495 C   0  0  0  0  0  0  0  0  0  0  0  0
    9.5278   50.0170  132.4728 C   0  0  0  0  0  0  0  0  0  0  0  0
    9.7214   48.7806  133.2715 C   0  0  0  0  0  0  0  0  0  0  0  0
   10.8920   48.4366  133.5823 O   0  0  0  0  0  0  0  0  0  0  0  0
    8.6309   48.0116  133.6726 N   0  0  0  0  0  0  0  0  0  0  0  0
    7.6372   48.3052  133.4101 H   0  0  0  0  0  0  0  0  0  0  0  0
    7.4863   45.9584  134.0062 C   0  0  0  0  0  0  0  0  0  0  0  0
    7.5788   45.5504  132.6869 O   0  0  0  0  0  0  0  0  0  0  0  0
    8.4561   45.6099  132.2814 H   0  0  0  0  0  0  0  0  0  0  0  0
   11.4444   43.4700  132.9245 C   0  0  0  0  0  0  0  0  0  0  0  0
   12.0945   42.6668  131.8229 C   0  0  0  0  0  0  0  0  0  0  0  0
   12.2174   43.1900  134.2352 C   0  0  0  0  0  0  0  0  0  0  0  0
   10.6554   45.1146  127.8927 C   0  0  0  0  0  0  0  0  0  0  0  0
   10.7012   43.6646  128.1241 C   0  0  0  0  0  0  0  0  0  0  0  0
    9.4040   42.9775  128.2780 C   0  0  0  0  0  0  0  0  0  0  0  0
    9.2969   42.5316  129.6735 N   0  0  0  0  0  0  0  0  0  0  0  0
    8.5556   43.1304  130.5447 C   0  0  0  0  0  0  0  0  0  0  0  0
    7.7823   44.2724  130.2105 N   0  0  0  0  0  0  0  0  0  0  0  0
    8.5145   42.6334  131.8615 N   0  0  0  0  0  0  0  0  0  0  0  0
    8.1231   45.2425  130.2461 H   0  0  0  0  0  0  0  0  0  0  0  0
    6.7785   44.1193  129.9022 H   0  0  0  0  0  0  0  0  0  0  0  0
    7.8616   43.0221  132.5834 H   0  0  0  0  0  0  0  0  0  0  0  0
    9.1408   41.8530  132.1649 H   0  0  0  0  0  0  0  0  0  0  0  0
    7.4354   47.6356  128.6136 C   0  0  0  0  0  0  0  0  0  0  0  0
    7.5410   49.0428  128.9629 C   0  0  0  0  0  0  0  0  0  0  0  0
    8.5143   49.5178  129.5595 O   0  0  0  0  0  0  0  0  0  0  0  0
    6.4744   49.9177  128.6081 N   0  0  0  0  0  0  0  0  0  0  0  0
    5.6624   49.5226  128.0978 H   0  0  0  0  0  0  0  0  0  0  0  0
    6.4327   51.3347  128.9124 C   0  0  0  0  0  0  0  0  0  0  0  0
    7.1477   52.1000  127.8490 C   0  0  0  0  0  0  0  0  0  0  0  0
    7.9662   51.5282  127.0710 O   0  0  0  0  0  0  0  0  0  0  0  0
    6.9216   53.4709  127.6937 N   0  0  0  0  0  0  0  0  0  0  0  0
    6.2572   53.9688  128.3059 H   0  0  0  0  0  0  0  0  0  0  0  0
    7.6260   54.1958  126.6616 C   0  0  0  0  0  0  0  0  0  0  0  0
    6.9674   55.4433  126.2466 C   0  0  0  0  0  0  0  0  0  0  0  0
    7.6320   56.4990  126.1616 O   0  0  0  0  0  0  0  0  0  0  0  0
    5.5976   55.4529  125.9433 N   0  0  0  0  0  0  0  0  0  0  0  0
    5.0771   54.5191  126.0287 H   0  0  0  0  0  0  0  0  0  0  0  0
    4.8372   56.6205  125.5252 C   0  0  0  0  0  0  0  0  0  0  0  0
    4.4091   57.3562  126.7249 C   0  0  0  0  0  0  0  0  0  0  0  0
    5.3045   58.1736  127.4295 N   0  0  0  0  0  0  0  0  0  0  0  0
    3.2211   57.2440  127.1157 O   0  0  0  0  0  0  0  0  0  0  0  0
    6.0303   57.7847  128.0553 H   0  0  0  0  0  0  0  0  0  0  0  0
    5.2699   59.2288  127.3506 H   0  0  0  0  0  0  0  0  0  0  0  0
    3.6138   56.2523  124.7424 C   0  0  0  0  0  0  0  0  0  0  0  0
    3.1336   57.3731  124.0935 O   0  0  0  0  0  0  0  0  0  0  0  0
    2.2281   57.6512  124.3437 H   0  0  0  0  0  0  0  0  0  0  0  0
    7.9645   53.2949  125.4808 C   0  0  0  0  0  0  0  0  0  0  0  0
    7.9416   53.9813  124.2911 O   0  0  0  0  0  0  0  0  0  0  0  0
    8.0370   53.3390  123.5266 H   0  0  0  0  0  0  0  0  0  0  0  0
    7.1215   51.6611  130.2245 C   0  0  0  0  0  0  0  0  0  0  0  0
    6.7755   50.7509  131.2220 O   0  0  0  0  0  0  0  0  0  0  0  0
    7.4587   50.0351  131.3590 H   0  0  0  0  0  0  0  0  0  0  0  0
    6.7483   46.8419  129.7491 C   0  0  0  0  0  0  0  0  0  0  0  0
    5.3837   46.8695  129.4657 O   0  0  0  0  0  0  0  0  0  0  0  0
    4.8936   47.4336  130.0816 H   0  0  0  0  0  0  0  0  0  0  0  0
 16 17  1  0  0  0
 17 18  2  0  0  0
 17 19  1  0  0  0
 19 15  1  0  0  0
 15 21  1  0  0  0
 21 22  1  0  0  0
 15 11  1  0  0  0
 11 12  2  0  0  0
 11 13  1  0  0  0
 13 10  1  0  0  0
 10 24  1  0  0  0
 24 25  1  0  0  0
 24 26  1  0  0  0
 10  6  1  0  0  0
  6  7  2  0  0  0
  6  8  1  0  0  0
  8  5  1  0  0  0
  5 27  1  0  0  0
 27 28  1  0  0  0
 28 29  1  0  0  0
 29 30  1  0  0  0
 30 31  2  0  0  0
 31 32  1  0  0  0
 31 33  1  0  0  0
  5  1  1  0  0  0
  1  2  2  0  0  0
  1  3  1  0  0  0
  3 38  1  0  0  0
 38 68  1  0  0  0
 68 69  1  0  0  0
 38 39  1  0  0  0
 39 40  2  0  0  0
 39 41  1  0  0  0
 41 43  1  0  0  0
 43 65  1  0  0  0
 65 66  1  0  0  0
 43 44  1  0  0  0
 44 45  2  0  0  0
 44 46  1  0  0  0
 46 48  1  0  0  0
 48 62  1  0  0  0
 62 63  1  0  0  0
 48 49  1  0  0  0
 49 50  2  0  0  0
 49 51  1  0  0  0
 51 53  1  0  0  0
 53 59  1  0  0  0
 59 60  1  0  0  0
 53 54  1  0  0  0
 54 55  1  0  0  0
 54 56  2  0  0  0
 19 20  1  0  0  0
 22 23  1  0  0  0
 13 14  1  0  0  0
  8  9  1  0  0  0
 32 34  1  0  0  0
 32 35  1  0  0  0
 33 36  1  0  0  0
 33 37  1  0  0  0
  3  4  1  0  0  0
 69 70  1  0  0  0
 41 42  1  0  0  0
 66 67  1  0  0  0
 46 47  1  0  0  0
 63 64  1  0  0  0
 51 52  1  0  0  0
 60 61  1  0  0  0
 55 57  1  0  0  0
 55 58  1  0  0  0
M  END
> <minimizedAffinity>
-0.34246

> <CNNscore>
0.2982277274

> <CNNaffinity>
7.2116494179

> <CNN_VS>
2.1507139206

> <CNNaffinity_variance>
0.2934741676

$$$$
[H]OB(O[H])[C@@]([H])(N([H])C(=O)[C@@]([H])(N([H])C(=O)[C@]1([H])OC(=O)[C@@]1([H])[C@@]([H])(C([H])([H])[H])C([H])([H])C([H])([H])[H])C([H])(C([H])([H])[H])C([H])([H])[H])C([H])([H])c1c([H])c([H])c([H])c([H])c1[H]


 34 35  0  0  0  0  0  0  0  0999 V2000
    8.7931   48.1235  132.5666 C   0  0  0  0  0  0  0  0  0  0  0  0
   10.5315   46.2970  132.4775 C   0  0  0  0  0  0  0  0  0  0  0  0
   10.7756   46.6684  131.2858 O   0  0  0  0  0  0  0  0  0  0  0  0
    9.5325   46.9944  133.1909 N   0  0  0  0  0  0  0  0  0  0  0  0
    9.3112   46.7106  134.1677 H   0  0  0  0  0  0  0  0  0  0  0  0
   10.5335   44.4141  134.1649 C   0  0  0  0  0  0  0  0  0  0  0  0
   11.2535   45.1869  133.1003 C   0  0  0  0  0  0  0  0  0  0  0  0
   11.1695   44.0112  132.3234 O   0  0  0  0  0  0  0  0  0  0  0  0
    9.9879   43.7134  132.9812 C   0  0  0  0  0  0  0  0  0  0  0  0
    8.9058   43.1030  132.6915 O   0  0  0  0  0  0  0  0  0  0  0  0
   11.4774   43.5464  134.9302 C   0  0  0  0  0  0  0  0  0  0  0  0
   12.8878   43.9957  134.6783 C   0  0  0  0  0  0  0  0  0  0  0  0
   12.2464   42.7517  137.1542 C   0  0  0  0  0  0  0  0  0  0  0  0
   11.1522   43.4818  136.4062 C   0  0  0  0  0  0  0  0  0  0  0  0
    8.1703   47.6702  131.3112 C   0  0  0  0  0  0  0  0  0  0  0  0
    7.1596   46.8918  131.4145 O   0  0  0  0  0  0  0  0  0  0  0  0
    8.6087   48.0375  130.0236 N   0  0  0  0  0  0  0  0  0  0  0  0
    9.4065   48.6803  129.9098 H   0  0  0  0  0  0  0  0  0  0  0  0
    7.9750   47.5666  128.8085 C   0  0  0  0  0  0  0  0  0  0  0  0
    6.7109   48.4592  128.5133 B   0  0  0  0  0  0  0  0  0  0  0  0
    6.7255   49.9202  128.7394 O   0  0  0  0  0  0  0  0  0  0  0  0
    5.4705   47.8976  128.0021 O   0  0  0  0  0  0  0  0  0  0  0  0
    5.8526   50.2420  129.0957 H   0  0  0  0  0  0  0  0  0  0  0  0
    5.5123   46.9533  127.7674 H   0  0  0  0  0  0  0  0  0  0  0  0
    7.6340   46.0837  128.9099 C   0  0  0  0  0  0  0  0  0  0  0  0
    8.8429   45.2225  128.8878 C   0  0  0  0  0  0  0  0  0  0  0  0
   10.0384   45.7312  128.4337 C   0  0  0  0  0  0  0  0  0  0  0  0
   11.1887   44.9346  128.4090 C   0  0  0  0  0  0  0  0  0  0  0  0
   11.1373   43.6265  128.8407 C   0  0  0  0  0  0  0  0  0  0  0  0
    9.9429   43.0942  129.3021 C   0  0  0  0  0  0  0  0  0  0  0  0
    8.8233   43.8978  129.3170 C   0  0  0  0  0  0  0  0  0  0  0  0
    9.8057   49.2072  132.2357 C   0  0  0  0  0  0  0  0  0  0  0  0
   10.3283   49.7598  133.5734 C   0  0  0  0  0  0  0  0  0  0  0  0
    9.2385   50.3790  131.4943 C   0  0  0  0  0  0  0  0  0  0  0  0
 13 14  1  0  0  0
 14 11  1  0  0  0
 11 12  1  0  0  0
 11  6  1  0  0  0
  6  7  1  0  0  0
  7  8  1  0  0  0
  8  9  1  0  0  0
  9 10  2  0  0  0
  7  2  1  0  0  0
  2  3  2  0  0  0
  2  4  1  0  0  0
  4  1  1  0  0  0
  1 32  1  0  0  0
 32 33  1  0  0  0
 32 34  1  0  0  0
  1 15  1  0  0  0
 15 16  2  0  0  0
 15 17  1  0  0  0
 17 19  1  0  0  0
 19 25  1  0  0  0
 25 26  1  0  0  0
 26 27  2  0  0  0
 27 28  1  0  0  0
 28 29  2  0  0  0
 29 30  1  0  0  0
 30 31  2  0  0  0
 19 20  1  0  0  0
 20 21  1  0  0  0
 20 22  1  0  0  0
  9  6  1  0  0  0
 31 26  1  0  0  0
  4  5  1  0  0  0
 17 18  1  0  0  0
 21 23  1  0  0  0
 22 24  1  0  0  0
M  END
> <minimizedAffinity>
-1.68383

> <CNNscore>
0.3650663495

> <CNNaffinity>
6.9203858376

> <CNN_VS>
2.5264000893

> <CNNaffinity_variance>
0.4242617488

$$$$
[H]OB(O[H])[C@@]([H])(N([H])C(=O)[C@@]([H])(N([H])C(=O)[C@]1([H])OC(=O)[C@@]1([H])[C@@]([H])(C([H])([H])[H])C([H])([H])C([H])([H])[H])C([H])(C([H])([H])[H])C([H])([H])[H])C([H])([H])c1c([H])c([H])c([H])c([H])c1[H]


 34 35  0  0  0  0  0  0  0  0999 V2000
   10.3026   45.5432  129.9499 C   0  0  0  0  0  0  0  0  0  0  0  0
   12.0437   44.2298  131.2185 C   0  0  0  0  0  0  0  0  0  0  0  0
   12.5963   43.9923  130.0978 O   0  0  0  0  0  0  0  0  0  0  0  0
   10.8701   45.0146  131.2187 N   0  0  0  0  0  0  0  0  0  0  0  0
   10.3963   45.2233  132.1218 H   0  0  0  0  0  0  0  0  0  0  0  0
   11.6209   43.3971  133.5682 C   0  0  0  0  0  0  0  0  0  0  0  0
   12.5945   43.7138  132.4723 C   0  0  0  0  0  0  0  0  0  0  0  0
   12.8256   42.3228  132.4051 O   0  0  0  0  0  0  0  0  0  0  0  0
   11.5157   42.1300  132.8111 C   0  0  0  0  0  0  0  0  0  0  0  0
   10.6160   41.2469  132.6164 O   0  0  0  0  0  0  0  0  0  0  0  0
   12.3235   43.2019  134.8711 C   0  0  0  0  0  0  0  0  0  0  0  0
   13.5811   44.0219  134.8905 C   0  0  0  0  0  0  0  0  0  0  0  0
   12.0255   42.8616  137.3133 C   0  0  0  0  0  0  0  0  0  0  0  0
   11.4381   43.4834  136.0650 C   0  0  0  0  0  0  0  0  0  0  0  0
    8.8696   45.8302  130.1332 C   0  0  0  0  0  0  0  0  0  0  0  0
    8.3372   45.4424  131.2306 O   0  0  0  0  0  0  0  0  0  0  0  0
    8.0616   46.4981  129.1918 N   0  0  0  0  0  0  0  0  0  0  0  0
    8.4677   46.8411  128.3086 H   0  0  0  0  0  0  0  0  0  0  0  0
    6.6518   46.7579  129.4031 C   0  0  0  0  0  0  0  0  0  0  0  0
    6.0695   47.4795  128.1295 B   0  0  0  0  0  0  0  0  0  0  0  0
    6.8648   48.4657  127.3675 O   0  0  0  0  0  0  0  0  0  0  0  0
    4.7275   47.2131  127.6361 O   0  0  0  0  0  0  0  0  0  0  0  0
    6.2979   49.2183  127.0438 H   0  0  0  0  0  0  0  0  0  0  0  0
    4.2576   46.4914  128.0910 H   0  0  0  0  0  0  0  0  0  0  0  0
    6.4297   47.5579  130.6823 C   0  0  0  0  0  0  0  0  0  0  0  0
    7.5358   48.5101  130.9532 C   0  0  0  0  0  0  0  0  0  0  0  0
    8.5822   48.1324  131.7635 C   0  0  0  0  0  0  0  0  0  0  0  0
    9.6349   49.0161  132.0270 C   0  0  0  0  0  0  0  0  0  0  0  0
    9.6357   50.2796  131.4760 C   0  0  0  0  0  0  0  0  0  0  0  0
    8.5912   50.6804  130.6568 C   0  0  0  0  0  0  0  0  0  0  0  0
    7.5656   49.7928  130.4117 C   0  0  0  0  0  0  0  0  0  0  0  0
   10.4432   44.4564  128.8970 C   0  0  0  0  0  0  0  0  0  0  0  0
   10.3771   45.1477  127.5239 C   0  0  0  0  0  0  0  0  0  0  0  0
    9.3423   43.4404  128.9051 C   0  0  0  0  0  0  0  0  0  0  0  0
 13 14  1  0  0  0
 14 11  1  0  0  0
 11 12  1  0  0  0
 11  6  1  0  0  0
  6  7  1  0  0  0
  7  8  1  0  0  0
  8  9  1  0  0  0
  9 10  2  0  0  0
  7  2  1  0  0  0
  2  3  2  0  0  0
  2  4  1  0  0  0
  4  1  1  0  0  0
  1 32  1  0  0  0
 32 33  1  0  0  0
 32 34  1  0  0  0
  1 15  1  0  0  0
 15 16  2  0  0  0
 15 17  1  0  0  0
 17 19  1  0  0  0
 19 25  1  0  0  0
 25 26  1  0  0  0
 26 27  2  0  0  0
 27 28  1  0  0  0
 28 29  2  0  0  0
 29 30  1  0  0  0
 30 31  2  0  0  0
 19 20  1  0  0  0
 20 21  1  0  0  0
 20 22  1  0  0  0
  9  6  1  0  0  0
 31 26  1  0  0  0
  4  5  1  0  0  0
 17 18  1  0  0  0
 21 23  1  0  0  0
 22 24  1  0  0  0
M  END
> <minimizedAffinity>
5.53877

> <CNNscore>
0.2974992394

> <CNNaffinity>
7.1446037292

> <CNN_VS>
2.1255142689

> <CNNaffinity_variance>
1.0627382994

$$$$
[H]OB(O[H])[C@@]([H])(N([H])C(=O)[C@@]([H])(N([H])C(=O)[C@]1([H])OC(=O)[C@@]1([H])[C@@]([H])(C([H])([H])[H])C([H])([H])C([H])([H])[H])C([H])(C([H])([H])[H])C([H])([H])[H])C([H])([H])c1c([H])c([H])c([H])c([H])c1[H]


 34 35  0  0  0  0  0  0  0  0999 V2000
    9.2371   48.5720  132.5793 C   0  0  0  0  0  0  0  0  0  0  0  0
    9.1485   46.3769  133.8200 C   0  0  0  0  0  0  0  0  0  0  0  0
    8.3848   46.9499  134.6603 O   0  0  0  0  0  0  0  0  0  0  0  0
    9.6211   47.1437  132.7328 N   0  0  0  0  0  0  0  0  0  0  0  0
   10.2490   46.7003  132.0307 H   0  0  0  0  0  0  0  0  0  0  0  0
   10.5337   44.4336  132.9848 C   0  0  0  0  0  0  0  0  0  0  0  0
    9.5323   44.9719  133.9627 C   0  0  0  0  0  0  0  0  0  0  0  0
   10.5377   44.8043  134.9394 O   0  0  0  0  0  0  0  0  0  0  0  0
   11.4770   45.0408  133.9497 C   0  0  0  0  0  0  0  0  0  0  0  0
   12.6429   45.5560  133.8963 O   0  0  0  0  0  0  0  0  0  0  0  0
   10.5831   42.9420  133.0326 C   0  0  0  0  0  0  0  0  0  0  0  0
    9.2009   42.4016  133.2607 C   0  0  0  0  0  0  0  0  0  0  0  0
   11.9464   43.4062  131.0091 C   0  0  0  0  0  0  0  0  0  0  0  0
   11.2408   42.3356  131.8127 C   0  0  0  0  0  0  0  0  0  0  0  0
    9.0080   48.8701  131.1552 C   0  0  0  0  0  0  0  0  0  0  0  0
   10.0447   48.9782  130.4123 O   0  0  0  0  0  0  0  0  0  0  0  0
    7.7383   49.0375  130.5679 N   0  0  0  0  0  0  0  0  0  0  0  0
    6.8848   48.9348  131.1369 H   0  0  0  0  0  0  0  0  0  0  0  0
    7.5505   49.3370  129.1627 C   0  0  0  0  0  0  0  0  0  0  0  0
    6.4550   50.4603  129.0222 B   0  0  0  0  0  0  0  0  0  0  0  0
    5.0523   50.2281  129.4276 O   0  0  0  0  0  0  0  0  0  0  0  0
    6.7638   51.7792  128.4926 O   0  0  0  0  0  0  0  0  0  0  0  0
    4.4150   50.6730  128.8044 H   0  0  0  0  0  0  0  0  0  0  0  0
    7.7089   51.9440  128.3243 H   0  0  0  0  0  0  0  0  0  0  0  0
    7.2012   48.0770  128.3778 C   0  0  0  0  0  0  0  0  0  0  0  0
    7.6243   46.8386  129.0786 C   0  0  0  0  0  0  0  0  0  0  0  0
    8.7549   46.1705  128.6670 C   0  0  0  0  0  0  0  0  0  0  0  0
    9.1702   45.0034  129.3181 C   0  0  0  0  0  0  0  0  0  0  0  0
    8.4488   44.5078  130.3830 C   0  0  0  0  0  0  0  0  0  0  0  0
    7.3065   45.1654  130.8138 C   0  0  0  0  0  0  0  0  0  0  0  0
    6.9171   46.3129  130.1570 C   0  0  0  0  0  0  0  0  0  0  0  0
   10.4046   49.4153  133.0641 C   0  0  0  0  0  0  0  0  0  0  0  0
   10.9937   48.7044  134.2951 C   0  0  0  0  0  0  0  0  0  0  0  0
   10.0272   50.7918  133.5193 C   0  0  0  0  0  0  0  0  0  0  0  0
 13 14  1  0  0  0
 14 11  1  0  0  0
 11 12  1  0  0  0
 11  6  1  0  0  0
  6  7  1  0  0  0
  7  8  1  0  0  0
  8  9  1  0  0  0
  9 10  2  0  0  0
  7  2  1  0  0  0
  2  3  2  0  0  0
  2  4  1  0  0  0
  4  1  1  0  0  0
  1 32  1  0  0  0
 32 33  1  0  0  0
 32 34  1  0  0  0
  1 15  1  0  0  0
 15 16  2  0  0  0
 15 17  1  0  0  0
 17 19  1  0  0  0
 19 25  1  0  0  0
 25 26  1  0  0  0
 26 27  2  0  0  0
 27 28  1  0  0  0
 28 29  2  0  0  0
 29 30  1  0  0  0
 30 31  2  0  0  0
 19 20  1  0  0  0
 20 21  1  0  0  0
 20 22  1  0  0  0
  9  6  1  0  0  0
 31 26  1  0  0  0
  4  5  1  0  0  0
 17 18  1  0  0  0
 21 23  1  0  0  0
 22 24  1  0  0  0
M  END
> <minimizedAffinity>
-4.77321

> <CNNscore>
0.2795958221

> <CNNaffinity>
7.0577430725

> <CNN_VS>
1.9733154774

> <CNNaffinity_variance>
0.2265617102

$$$$
[H]OB(O[H])[C@@]([H])(N([H])C(=O)[C@@]([H])(N([H])C(=O)[C@]1([H])OC(=O)[C@@]1([H])[C@@]([H])(C([H])([H])[H])C([H])([H])C([H])([H])[H])C([H])(C([H])([H])[H])C([H])([H])[H])C([H])([H])c1c([H])c([H])c([H])c([H])c1[H]


 34 35  0  0  0  0  0  0  0  0999 V2000
    9.4597   47.8761  130.1371 C   0  0  0  0  0  0  0  0  0  0  0  0
    9.7426   45.9784  131.7755 C   0  0  0  0  0  0  0  0  0  0  0  0
    8.5875   45.5796  131.4230 O   0  0  0  0  0  0  0  0  0  0  0  0
   10.2510   47.1433  131.1608 N   0  0  0  0  0  0  0  0  0  0  0  0
   11.1935   47.4929  131.4315 H   0  0  0  0  0  0  0  0  0  0  0  0
   11.1101   43.9405  132.3837 C   0  0  0  0  0  0  0  0  0  0  0  0
   10.5289   45.2642  132.7822 C   0  0  0  0  0  0  0  0  0  0  0  0
   11.8613   45.7286  132.8268 O   0  0  0  0  0  0  0  0  0  0  0  0
   12.1660   44.8170  131.8299 C   0  0  0  0  0  0  0  0  0  0  0  0
   12.9939   44.7604  130.8610 O   0  0  0  0  0  0  0  0  0  0  0  0
   11.5936   43.1848  133.5773 C   0  0  0  0  0  0  0  0  0  0  0  0
   12.6179   44.0039  134.3083 C   0  0  0  0  0  0  0  0  0  0  0  0
    9.2569   42.3472  133.6636 C   0  0  0  0  0  0  0  0  0  0  0  0
   10.4691   42.7333  134.4830 C   0  0  0  0  0  0  0  0  0  0  0  0
    8.0412   47.8969  130.5331 C   0  0  0  0  0  0  0  0  0  0  0  0
    7.7908   47.9505  131.7871 O   0  0  0  0  0  0  0  0  0  0  0  0
    6.9592   47.8656  129.6311 N   0  0  0  0  0  0  0  0  0  0  0  0
    7.1302   47.8442  128.6148 H   0  0  0  0  0  0  0  0  0  0  0  0
    5.5743   47.8808  130.0570 C   0  0  0  0  0  0  0  0  0  0  0  0
    4.8034   46.7163  129.3283 B   0  0  0  0  0  0  0  0  0  0  0  0
    3.5527   46.1527  129.8794 O   0  0  0  0  0  0  0  0  0  0  0  0
    5.2762   46.1390  128.0798 O   0  0  0  0  0  0  0  0  0  0  0  0
    3.5052   45.1673  129.7404 H   0  0  0  0  0  0  0  0  0  0  0  0
    6.0441   46.5883  127.6836 H   0  0  0  0  0  0  0  0  0  0  0  0
    4.9420   49.2463  129.8097 C   0  0  0  0  0  0  0  0  0  0  0  0
    5.9556   50.3204  129.6604 C   0  0  0  0  0  0  0  0  0  0  0  0
    6.8721   50.5420  130.6630 C   0  0  0  0  0  0  0  0  0  0  0  0
    7.8368   51.5481  130.5377 C   0  0  0  0  0  0  0  0  0  0  0  0
    7.8802   52.3316  129.4044 C   0  0  0  0  0  0  0  0  0  0  0  0
    6.9661   52.1252  128.3823 C   0  0  0  0  0  0  0  0  0  0  0  0
    6.0253   51.1286  128.5284 C   0  0  0  0  0  0  0  0  0  0  0  0
    9.5815   47.1113  128.8296 C   0  0  0  0  0  0  0  0  0  0  0  0
    8.4965   46.0202  128.8427 C   0  0  0  0  0  0  0  0  0  0  0  0
   10.8867   46.3984  128.6487 C   0  0  0  0  0  0  0  0  0  0  0  0
 13 14  1  0  0  0
 14 11  1  0  0  0
 11 12  1  0  0  0
 11  6  1  0  0  0
  6  7  1  0  0  0
  7  8  1  0  0  0
  8  9  1  0  0  0
  9 10  2  0  0  0
  7  2  1  0  0  0
  2  3  2  0  0  0
  2  4  1  0  0  0
  4  1  1  0  0  0
  1 32  1  0  0  0
 32 33  1  0  0  0
 32 34  1  0  0  0
  1 15  1  0  0  0
 15 16  2  0  0  0
 15 17  1  0  0  0
 17 19  1  0  0  0
 19 25  1  0  0  0
 25 26  1  0  0  0
 26 27  2  0  0  0
 27 28  1  0  0  0
 28 29  2  0  0  0
 29 30  1  0  0  0
 30 31  2  0  0  0
 19 20  1  0  0  0
 20 21  1  0  0  0
 20 22  1  0  0  0
  9  6  1  0  0  0
 31 26  1  0  0  0
  4  5  1  0  0  0
 17 18  1  0  0  0
 21 23  1  0  0  0
 22 24  1  0  0  0
M  END
> <minimizedAffinity>
7.91230

> <CNNscore>
0.2425559908

> <CNNaffinity>
6.6240363121

> <CNN_VS>
1.6066997051

> <CNNaffinity_variance>
0.8782194257

$$$$
[H]OB(O[H])[C@@]([H])(N([H])C(=O)[C@@]([H])(N([H])C(=O)[C@]1([H])OC(=O)[C@@]1([H])[C@@]([H])(C([H])([H])[H])C([H])([H])C([H])([H])[H])C([H])(C([H])([H])[H])C([H])([H])[H])C([H])([H])c1c([H])c([H])c([H])c([H])c1[H]


 34 35  0  0  0  0  0  0  0  0999 V2000
    9.5238   45.3345  129.1367 C   0  0  0  0  0  0  0  0  0  0  0  0
   11.7012   44.8120  130.2994 C   0  0  0  0  0  0  0  0  0  0  0  0
   12.2591   44.8806  129.1585 O   0  0  0  0  0  0  0  0  0  0  0  0
   10.3081   45.0327  130.3634 N   0  0  0  0  0  0  0  0  0  0  0  0
    9.8254   44.9812  131.2844 H   0  0  0  0  0  0  0  0  0  0  0  0
   11.6880   44.0867  132.7216 C   0  0  0  0  0  0  0  0  0  0  0  0
   12.4645   44.5153  131.5123 C   0  0  0  0  0  0  0  0  0  0  0  0
   12.9790   43.2008  131.4942 O   0  0  0  0  0  0  0  0  0  0  0  0
   11.7843   42.7726  132.0482 C   0  0  0  0  0  0  0  0  0  0  0  0
   11.0789   41.7108  131.9982 O   0  0  0  0  0  0  0  0  0  0  0  0
   12.5353   44.1380  133.9500 C   0  0  0  0  0  0  0  0  0  0  0  0
   13.1247   45.5112  134.0956 C   0  0  0  0  0  0  0  0  0  0  0  0
   10.3227   44.0236  135.0727 C   0  0  0  0  0  0  0  0  0  0  0  0
   11.7955   43.6976  135.1938 C   0  0  0  0  0  0  0  0  0  0  0  0
    8.4977   46.3454  129.4444 C   0  0  0  0  0  0  0  0  0  0  0  0
    7.2755   45.9808  129.3379 O   0  0  0  0  0  0  0  0  0  0  0  0
    8.7735   47.6674  129.8461 N   0  0  0  0  0  0  0  0  0  0  0  0
    9.7480   47.9830  129.9615 H   0  0  0  0  0  0  0  0  0  0  0  0
    7.7374   48.6383  130.1348 C   0  0  0  0  0  0  0  0  0  0  0  0
    7.3935   49.4255  128.8143 B   0  0  0  0  0  0  0  0  0  0  0  0
    7.1325   48.7226  127.5402 O   0  0  0  0  0  0  0  0  0  0  0  0
    7.3113   50.8772  128.7791 O   0  0  0  0  0  0  0  0  0  0  0  0
    7.5113   49.2212  126.7653 H   0  0  0  0  0  0  0  0  0  0  0  0
    7.3886   51.3149  129.6457 H   0  0  0  0  0  0  0  0  0  0  0  0
    8.1559   49.5610  131.2745 C   0  0  0  0  0  0  0  0  0  0  0  0
    8.8791   48.8384  132.3508 C   0  0  0  0  0  0  0  0  0  0  0  0
   10.0857   49.3180  132.8073 C   0  0  0  0  0  0  0  0  0  0  0  0
   10.7795   48.6514  133.8235 C   0  0  0  0  0  0  0  0  0  0  0  0
   10.2604   47.5025  134.3809 C   0  0  0  0  0  0  0  0  0  0  0  0
    9.0462   47.0021  133.9357 C   0  0  0  0  0  0  0  0  0  0  0  0
    8.3813   47.6758  132.9339 C   0  0  0  0  0  0  0  0  0  0  0  0
    8.8238   44.0538  128.7136 C   0  0  0  0  0  0  0  0  0  0  0  0
    8.6098   43.2154  129.9861 C   0  0  0  0  0  0  0  0  0  0  0  0
    9.6174   43.1946  127.7775 C   0  0  0  0  0  0  0  0  0  0  0  0
 13 14  1  0  0  0
 14 11  1  0  0  0
 11 12  1  0  0  0
 11  6  1  0  0  0
  6  7  1  0  0  0
  7  8  1  0  0  0
  8  9  1  0  0  0
  9 10  2  0  0  0
  7  2  1  0  0  0
  2  3  2  0  0  0
  2  4  1  0  0  0
  4  1  1  0  0  0
  1 32  1  0  0  0
 32 33  1  0  0  0
 32 34  1  0  0  0
  1 15  1  0  0  0
 15 16  2  0  0  0
 15 17  1  0  0  0
 17 19  1  0  0  0
 19 25  1  0  0  0
 25 26  1  0  0  0
 26 27  2  0  0  0
 27 28  1  0  0  0
 28 29  2  0  0  0
 29 30  1  0  0  0
 30 31  2  0  0  0
 19 20  1  0  0  0
 20 21  1  0  0  0
 20 22  1  0  0  0
  9  6  1  0  0  0
 31 26  1  0  0  0
  4  5  1  0  0  0
 17 18  1  0  0  0
 21 23  1  0  0  0
 22 24  1  0  0  0
M  END
> <minimizedAffinity>
-5.36277

> <CNNscore>
0.2305255532

> <CNNaffinity>
6.9003586769

> <CNN_VS>
1.5907089710

> <CNNaffinity_variance>
0.1290418655

$$$$
[H]OB(O[H])[C@@]([H])(N([H])C(=O)[C@@]([H])(N([H])C(=O)[C@]1([H])OC(=O)[C@@]1([H])[C@@]([H])(C([H])([H])[H])C([H])([H])C([H])([H])[H])C([H])(C([H])([H])[H])C([H])([H])[H])C([H])([H])c1c([H])c([H])c([H])c([H])c1[H]


 34 35  0  0  0  0  0  0  0  0999 V2000
   10.4570   47.1851  132.2327 C   0  0  0  0  0  0  0  0  0  0  0  0
    9.2096   47.3836  130.0485 C   0  0  0  0  0  0  0  0  0  0  0  0
   10.3369   47.5678  129.4890 O   0  0  0  0  0  0  0  0  0  0  0  0
    9.1952   47.1815  131.4457 N   0  0  0  0  0  0  0  0  0  0  0  0
    8.2862   47.0297  131.9297 H   0  0  0  0  0  0  0  0  0  0  0  0
    6.8768   48.3078  129.7374 C   0  0  0  0  0  0  0  0  0  0  0  0
    7.9626   47.3786  129.2827 C   0  0  0  0  0  0  0  0  0  0  0  0
    8.0531   48.1980  128.1366 O   0  0  0  0  0  0  0  0  0  0  0  0
    7.6564   49.2665  128.9231 C   0  0  0  0  0  0  0  0  0  0  0  0
    7.8706   50.5240  128.9372 O   0  0  0  0  0  0  0  0  0  0  0  0
    5.5743   47.9695  129.0904 C   0  0  0  0  0  0  0  0  0  0  0  0
    4.9707   46.7760  129.7726 C   0  0  0  0  0  0  0  0  0  0  0  0
    4.9358   50.1252  130.1459 C   0  0  0  0  0  0  0  0  0  0  0  0
    4.6206   49.1427  129.0390 C   0  0  0  0  0  0  0  0  0  0  0  0
   10.7596   45.8162  132.6842 C   0  0  0  0  0  0  0  0  0  0  0  0
   11.8327   45.6543  133.3629 O   0  0  0  0  0  0  0  0  0  0  0  0
    9.9521   44.6916  132.4228 N   0  0  0  0  0  0  0  0  0  0  0  0
    9.0712   44.7951  131.8974 H   0  0  0  0  0  0  0  0  0  0  0  0
   10.2846   43.3567  132.8777 C   0  0  0  0  0  0  0  0  0  0  0  0
   11.5553   43.4354  133.8055 B   0  0  0  0  0  0  0  0  0  0  0  0
   12.9171   43.2181  133.2726 O   0  0  0  0  0  0  0  0  0  0  0  0
   11.4576   43.7279  135.2269 O   0  0  0  0  0  0  0  0  0  0  0  0
   13.4864   42.7198  133.9207 H   0  0  0  0  0  0  0  0  0  0  0  0
   10.5655   43.9643  135.5379 H   0  0  0  0  0  0  0  0  0  0  0  0
   10.4787   42.4103  131.6978 C   0  0  0  0  0  0  0  0  0  0  0  0
   10.5502   43.1297  130.4014 C   0  0  0  0  0  0  0  0  0  0  0  0
   11.6634   43.8782  130.0935 C   0  0  0  0  0  0  0  0  0  0  0  0
   11.7491   44.5604  128.8746 C   0  0  0  0  0  0  0  0  0  0  0  0
   10.7157   44.4902  127.9651 C   0  0  0  0  0  0  0  0  0  0  0  0
    9.5850   43.7417  128.2554 C   0  0  0  0  0  0  0  0  0  0  0  0
    9.5233   43.0787  129.4621 C   0  0  0  0  0  0  0  0  0  0  0  0
   10.2307   48.0553  133.4578 C   0  0  0  0  0  0  0  0  0  0  0  0
    8.9390   47.5590  134.1309 C   0  0  0  0  0  0  0  0  0  0  0  0
   10.0114   49.5060  133.1548 C   0  0  0  0  0  0  0  0  0  0  0  0
 13 14  1  0  0  0
 14 11  1  0  0  0
 11 12  1  0  0  0
 11  6  1  0  0  0
  6  7  1  0  0  0
  7  8  1  0  0  0
  8  9  1  0  0  0
  9 10  2  0  0  0
  7  2  1  0  0  0
  2  3  2  0  0  0
  2  4  1  0  0  0
  4  1  1  0  0  0
  1 32  1  0  0  0
 32 33  1  0  0  0
 32 34  1  0  0  0
  1 15  1  0  0  0
 15 16  2  0  0  0
 15 17  1  0  0  0
 17 19  1  0  0  0
 19 25  1  0  0  0
 25 26  1  0  0  0
 26 27  2  0  0  0
 27 28  1  0  0  0
 28 29  2  0  0  0
 29 30  1  0  0  0
 30 31  2  0  0  0
 19 20  1  0  0  0
 20 21  1  0  0  0
 20 22  1  0  0  0
  9  6  1  0  0  0
 31 26  1  0  0  0
  4  5  1  0  0  0
 17 18  1  0  0  0
 21 23  1  0  0  0
 22 24  1  0  0  0
M  END
> <minimizedAffinity>
-6.59329

> <CNNscore>
0.1463009864

> <CNNaffinity>
6.4765844345

> <CNN_VS>
0.9475306869

> <CNNaffinity_variance>
0.1083113775

$$$$
[H]OB(O[H])[C@@]([H])(N([H])C(=O)[C@@]([H])(N([H])C(=O)[C@]1([H])OC(=O)[C@@]1([H])[C@@]([H])(C([H])([H])[H])C([H])([H])C([H])([H])[H])C([H])(C([H])([H])[H])C([H])([H])[H])C([H])([H])c1c([H])c([H])c([H])c([H])c1[H]


 34 35  0  0  0  0  0  0  0  0999 V2000
    9.0935   47.9207  132.2969 C   0  0  0  0  0  0  0  0  0  0  0  0
   10.9701   46.2503  132.5304 C   0  0  0  0  0  0  0  0  0  0  0  0
   11.2610   46.4960  131.3169 O   0  0  0  0  0  0  0  0  0  0  0  0
    9.8762   46.9409  133.0961 N   0  0  0  0  0  0  0  0  0  0  0  0
    9.6150   46.7580  134.0871 H   0  0  0  0  0  0  0  0  0  0  0  0
   10.9820   44.1237  133.8979 C   0  0  0  0  0  0  0  0  0  0  0  0
   11.7341   45.2877  133.3248 C   0  0  0  0  0  0  0  0  0  0  0  0
   12.3874   44.3407  132.5066 O   0  0  0  0  0  0  0  0  0  0  0  0
   11.2339   43.5756  132.5467 C   0  0  0  0  0  0  0  0  0  0  0  0
   10.6482   42.7581  131.7618 O   0  0  0  0  0  0  0  0  0  0  0  0
   11.7917   43.4195  134.9362 C   0  0  0  0  0  0  0  0  0  0  0  0
   13.2002   43.9389  134.9110 C   0  0  0  0  0  0  0  0  0  0  0  0
   12.0734   42.8240  137.3309 C   0  0  0  0  0  0  0  0  0  0  0  0
   11.1767   43.4990  136.3160 C   0  0  0  0  0  0  0  0  0  0  0  0
    8.8417   47.3715  130.9536 C   0  0  0  0  0  0  0  0  0  0  0  0
    9.5118   47.8760  129.9869 O   0  0  0  0  0  0  0  0  0  0  0  0
    7.9260   46.3386  130.6714 N   0  0  0  0  0  0  0  0  0  0  0  0
    7.3882   45.8983  131.4327 H   0  0  0  0  0  0  0  0  0  0  0  0
    7.6989   45.8268  129.3350 C   0  0  0  0  0  0  0  0  0  0  0  0
    8.7880   44.7345  129.0149 B   0  0  0  0  0  0  0  0  0  0  0  0
    8.4500   43.4969  128.2801 O   0  0  0  0  0  0  0  0  0  0  0  0
   10.1767   44.8858  129.4196 O   0  0  0  0  0  0  0  0  0  0  0  0
    8.9493   42.7129  128.6385 H   0  0  0  0  0  0  0  0  0  0  0  0
   10.3988   45.7483  129.8137 H   0  0  0  0  0  0  0  0  0  0  0  0
    7.6855   46.9578  128.3121 C   0  0  0  0  0  0  0  0  0  0  0  0
    6.8739   48.1168  128.7609 C   0  0  0  0  0  0  0  0  0  0  0  0
    5.5560   47.9350  129.1136 C   0  0  0  0  0  0  0  0  0  0  0  0
    4.7770   49.0158  129.5421 C   0  0  0  0  0  0  0  0  0  0  0  0
    5.3227   50.2794  129.6160 C   0  0  0  0  0  0  0  0  0  0  0  0
    6.6485   50.4846  129.2652 C   0  0  0  0  0  0  0  0  0  0  0  0
    7.3959   49.4051  128.8462 C   0  0  0  0  0  0  0  0  0  0  0  0
    9.9402   49.1742  132.1516 C   0  0  0  0  0  0  0  0  0  0  0  0
   10.3858   49.5838  133.5664 C   0  0  0  0  0  0  0  0  0  0  0  0
    9.2086   50.3536  131.5878 C   0  0  0  0  0  0  0  0  0  0  0  0
 13 14  1  0  0  0
 14 11  1  0  0  0
 11 12  1  0  0  0
 11  6  1  0  0  0
  6  7  1  0  0  0
  7  8  1  0  0  0
  8  9  1  0  0  0
  9 10  2  0  0  0
  7  2  1  0  0  0
  2  3  2  0  0  0
  2  4  1  0  0  0
  4  1  1  0  0  0
  1 32  1  0  0  0
 32 33  1  0  0  0
 32 34  1  0  0  0
  1 15  1  0  0  0
 15 16  2  0  0  0
 15 17  1  0  0  0
 17 19  1  0  0  0
 19 25  1  0  0  0
 25 26  1  0  0  0
 26 27  2  0  0  0
 27 28  1  0  0  0
 28 29  2  0  0  0
 29 30  1  0  0  0
 30 31  2  0  0  0
 19 20  1  0  0  0
 20 21  1  0  0  0
 20 22  1  0  0  0
  9  6  1  0  0  0
 31 26  1  0  0  0
  4  5  1  0  0  0
 17 18  1  0  0  0
 21 23  1  0  0  0
 22 24  1  0  0  0
M  END
> <minimizedAffinity>
-0.00335

> <CNNscore>
0.1309821308

> <CNNaffinity>
6.3315691948

> <CNN_VS>
0.8293223977

> <CNNaffinity_variance>
0.4840844572

$$$$
[H]OB(O[H])[C@@]([H])(N([H])C(=O)[C@@]([H])(N([H])C(=O)[C@]1([H])OC(=O)[C@@]1([H])[C@@]([H])(C([H])([H])[H])C([H])([H])C([H])([H])[H])C([H])(C([H])([H])[H])C([H])([H])[H])C([H])([H])c1c([H])c([H])c([H])c([H])c1[H]


 34 35  0  0  0  0  0  0  0  0999 V2000
    9.5914   46.7278  132.5561 C   0  0  0  0  0  0  0  0  0  0  0  0
    8.2148   47.5653  130.6146 C   0  0  0  0  0  0  0  0  0  0  0  0
    8.0556   46.3489  130.2789 O   0  0  0  0  0  0  0  0  0  0  0  0
    8.9868   47.8330  131.7660 N   0  0  0  0  0  0  0  0  0  0  0  0
    9.1345   48.8198  132.0629 H   0  0  0  0  0  0  0  0  0  0  0  0
    7.0214   49.7943  130.6169 C   0  0  0  0  0  0  0  0  0  0  0  0
    7.6241   48.6597  129.8433 C   0  0  0  0  0  0  0  0  0  0  0  0
    8.6019   49.5886  129.4262 O   0  0  0  0  0  0  0  0  0  0  0  0
    8.4310   50.2443  130.6339 C   0  0  0  0  0  0  0  0  0  0  0  0
    9.1673   50.9330  131.4155 O   0  0  0  0  0  0  0  0  0  0  0  0
    6.1797   50.6577  129.7362 C   0  0  0  0  0  0  0  0  0  0  0  0
    7.0581   51.6194  128.9894 C   0  0  0  0  0  0  0  0  0  0  0  0
    4.7169   48.6606  129.5349 C   0  0  0  0  0  0  0  0  0  0  0  0
    5.2867   49.8609  128.8109 C   0  0  0  0  0  0  0  0  0  0  0  0
   10.2722   45.7887  131.6485 C   0  0  0  0  0  0  0  0  0  0  0  0
   11.4214   46.1396  131.2077 O   0  0  0  0  0  0  0  0  0  0  0  0
    9.7469   44.5454  131.2442 N   0  0  0  0  0  0  0  0  0  0  0  0
    8.8334   44.2266  131.6000 H   0  0  0  0  0  0  0  0  0  0  0  0
   10.4425   43.6485  130.3435 C   0  0  0  0  0  0  0  0  0  0  0  0
    9.3929   42.9797  129.3778 B   0  0  0  0  0  0  0  0  0  0  0  0
    9.6153   42.9167  127.9175 O   0  0  0  0  0  0  0  0  0  0  0  0
    8.1578   42.3888  129.8685 O   0  0  0  0  0  0  0  0  0  0  0  0
    8.7668   43.0537  127.4139 H   0  0  0  0  0  0  0  0  0  0  0  0
    8.0761   42.3524  130.8383 H   0  0  0  0  0  0  0  0  0  0  0  0
   11.2614   42.6223  131.1194 C   0  0  0  0  0  0  0  0  0  0  0  0
   11.4734   43.0202  132.5337 C   0  0  0  0  0  0  0  0  0  0  0  0
   12.6036   43.7223  132.8860 C   0  0  0  0  0  0  0  0  0  0  0  0
   12.8181   44.1083  134.2139 C   0  0  0  0  0  0  0  0  0  0  0  0
   11.8965   43.7887  135.1878 C   0  0  0  0  0  0  0  0  0  0  0  0
   10.7510   43.0818  134.8544 C   0  0  0  0  0  0  0  0  0  0  0  0
   10.5615   42.7124  133.5402 C   0  0  0  0  0  0  0  0  0  0  0  0
    8.4599   45.9885  133.2507 C   0  0  0  0  0  0  0  0  0  0  0  0
    8.7862   45.9749  134.7544 C   0  0  0  0  0  0  0  0  0  0  0  0
    8.3152   44.5542  132.8430 C   0  0  0  0  0  0  0  0  0  0  0  0
 13 14  1  0  0  0
 14 11  1  0  0  0
 11 12  1  0  0  0
 11  6  1  0  0  0
  6  7  1  0  0  0
  7  8  1  0  0  0
  8  9  1  0  0  0
  9 10  2  0  0  0
  7  2  1  0  0  0
  2  3  2  0  0  0
  2  4  1  0  0  0
  4  1  1  0  0  0
  1 32  1  0  0  0
 32 33  1  0  0  0
 32 34  1  0  0  0
  1 15  1  0  0  0
 15 16  2  0  0  0
 15 17  1  0  0  0
 17 19  1  0  0  0
 19 25  1  0  0  0
 25 26  1  0  0  0
 26 27  2  0  0  0
 27 28  1  0  0  0
 28 29  2  0  0  0
 29 30  1  0  0  0
 30 31  2  0  0  0
 19 20  1  0  0  0
 20 21  1  0  0  0
 20 22  1  0  0  0
  9  6  1  0  0  0
 31 26  1  0  0  0
  4  5  1  0  0  0
 17 18  1  0  0  0
 21 23  1  0  0  0
 22 24  1  0  0  0
M  END
> <minimizedAffinity>
-3.47624

> <CNNscore>
0.1156433746

> <CNNaffinity>
6.8952550888

> <CNN_VS>
0.7973905802

> <CNNaffinity_variance>
0.2321506739

$$$$
[H]OB(O[H])[C@@]([H])(N([H])C(=O)[C@@]([H])(N([H])C(=O)[C@]1([H])OC(=O)[C@@]1([H])[C@@]([H])(C([H])([H])[H])C([H])([H])C([H])([H])[H])C([H])(C([H])([H])[H])C([H])([H])[H])C([H])([H])c1c([H])c([H])c([H])c([H])c1[H]


 34 35  0  0  0  0  0  0  0  0999 V2000
    9.7469   44.3697  129.8598 C   0  0  0  0  0  0  0  0  0  0  0  0
    8.1172   46.1700  130.5446 C   0  0  0  0  0  0  0  0  0  0  0  0
    7.4388   45.2572  131.1140 O   0  0  0  0  0  0  0  0  0  0  0  0
    9.3064   45.7898  129.8855 N   0  0  0  0  0  0  0  0  0  0  0  0
    9.8806   46.5163  129.4098 H   0  0  0  0  0  0  0  0  0  0  0  0
    7.7649   48.3254  129.2706 C   0  0  0  0  0  0  0  0  0  0  0  0
    7.6919   47.5701  130.5641 C   0  0  0  0  0  0  0  0  0  0  0  0
    6.2902   47.6893  130.4449 O   0  0  0  0  0  0  0  0  0  0  0  0
    6.4503   47.6764  129.0694 C   0  0  0  0  0  0  0  0  0  0  0  0
    5.7640   47.2790  128.0702 O   0  0  0  0  0  0  0  0  0  0  0  0
    7.6233   49.7944  129.4975 C   0  0  0  0  0  0  0  0  0  0  0  0
    6.1739   50.1343  129.6925 C   0  0  0  0  0  0  0  0  0  0  0  0
    9.8643   49.6762  130.5621 C   0  0  0  0  0  0  0  0  0  0  0  0
    8.4875   50.3006  130.6313 C   0  0  0  0  0  0  0  0  0  0  0  0
   10.7434   44.1439  130.9206 C   0  0  0  0  0  0  0  0  0  0  0  0
   11.0506   42.9282  131.1772 O   0  0  0  0  0  0  0  0  0  0  0  0
   11.3727   45.1672  131.6568 N   0  0  0  0  0  0  0  0  0  0  0  0
   11.1614   46.1563  131.4574 H   0  0  0  0  0  0  0  0  0  0  0  0
   12.3450   44.9077  132.6993 C   0  0  0  0  0  0  0  0  0  0  0  0
   12.1603   43.4301  133.2131 B   0  0  0  0  0  0  0  0  0  0  0  0
   11.0977   43.0732  134.1771 O   0  0  0  0  0  0  0  0  0  0  0  0
   13.0179   42.3436  132.7666 O   0  0  0  0  0  0  0  0  0  0  0  0
   11.4135   42.3912  134.8310 H   0  0  0  0  0  0  0  0  0  0  0  0
   13.6457   42.5787  132.0601 H   0  0  0  0  0  0  0  0  0  0  0  0
   12.2316   45.9358  133.8199 C   0  0  0  0  0  0  0  0  0  0  0  0
   10.8552   46.4748  133.9559 C   0  0  0  0  0  0  0  0  0  0  0  0
   10.5614   47.7322  133.4795 C   0  0  0  0  0  0  0  0  0  0  0  0
    9.2684   48.2548  133.5963 C   0  0  0  0  0  0  0  0  0  0  0  0
    8.2707   47.5135  134.1921 C   0  0  0  0  0  0  0  0  0  0  0  0
    8.5452   46.2444  134.6790 C   0  0  0  0  0  0  0  0  0  0  0  0
    9.8259   45.7509  134.5527 C   0  0  0  0  0  0  0  0  0  0  0  0
   10.4117   44.1202  128.5163 C   0  0  0  0  0  0  0  0  0  0  0  0
   10.6538   45.4958  127.8706 C   0  0  0  0  0  0  0  0  0  0  0  0
    9.5737   43.3462  127.5451 C   0  0  0  0  0  0  0  0  0  0  0  0
 13 14  1  0  0  0
 14 11  1  0  0  0
 11 12  1  0  0  0
 11  6  1  0  0  0
  6  7  1  0  0  0
  7  8  1  0  0  0
  8  9  1  0  0  0
  9 10  2  0  0  0
  7  2  1  0  0  0
  2  3  2  0  0  0
  2  4  1  0  0  0
  4  1  1  0  0  0
  1 32  1  0  0  0
 32 33  1  0  0  0
 32 34  1  0  0  0
  1 15  1  0  0  0
 15 16  2  0  0  0
 15 17  1  0  0  0
 17 19  1  0  0  0
 19 25  1  0  0  0
 25 26  1  0  0  0
 26 27  2  0  0  0
 27 28  1  0  0  0
 28 29  2  0  0  0
 29 30  1  0  0  0
 30 31  2  0  0  0
 19 20  1  0  0  0
 20 21  1  0  0  0
 20 22  1  0  0  0
  9  6  1  0  0  0
 31 26  1  0  0  0
  4  5  1  0  0  0
 17 18  1  0  0  0
 21 23  1  0  0  0
 22 24  1  0  0  0
M  END
> <minimizedAffinity>
-7.05458

> <CNNscore>
0.1117948368

> <CNNaffinity>
6.6738662720

> <CNN_VS>
0.7461037636

> <CNNaffinity_variance>
0.0858365670

$$$$
[H]c1c([H])c([H])c(-c2nc3c([H])c(N([H])C(=O)[C@]([H])(Oc4c([H])c([H])c([H])c5c([H])c([H])c([H])c([H])c45)C([H])([H])[H])c([H])c([H])c3o2)c([H])c1[H]


 32 36  0  0  0  0  0  0  0  0999 V2000
    7.5733   48.3445  128.9034 C   0  0  0  0  0  0  0  0  0  0  0  0
    6.8522   47.8753  127.9959 O   0  0  0  0  0  0  0  0  0  0  0  0
    8.6588   47.6533  129.4427 N   0  0  0  0  0  0  0  0  0  0  0  0
    9.2154   48.1545  130.2109 H   0  0  0  0  0  0  0  0  0  0  0  0
    9.1455   46.3614  129.0997 C   0  0  0  0  0  0  0  0  0  0  0  0
    9.8011   46.1222  127.9233 C   0  0  0  0  0  0  0  0  0  0  0  0
   10.2206   44.8092  127.6676 C   0  0  0  0  0  0  0  0  0  0  0  0
    9.9976   43.7769  128.5459 C   0  0  0  0  0  0  0  0  0  0  0  0
   10.2741   42.5092  128.5499 O   0  0  0  0  0  0  0  0  0  0  0  0
    9.8567   41.9131  129.6209 C   0  0  0  0  0  0  0  0  0  0  0  0
    9.2669   42.8594  130.3667 N   0  0  0  0  0  0  0  0  0  0  0  0
    9.3365   44.0557  129.7169 C   0  0  0  0  0  0  0  0  0  0  0  0
    8.9227   45.3210  129.9816 C   0  0  0  0  0  0  0  0  0  0  0  0
    9.9727   40.5089  129.9975 C   0  0  0  0  0  0  0  0  0  0  0  0
    9.1116   39.5660  129.4856 C   0  0  0  0  0  0  0  0  0  0  0  0
    9.2056   38.2282  129.8331 C   0  0  0  0  0  0  0  0  0  0  0  0
   10.1796   37.7904  130.7167 C   0  0  0  0  0  0  0  0  0  0  0  0
   11.0442   38.7306  131.2319 C   0  0  0  0  0  0  0  0  0  0  0  0
   10.9388   40.0597  130.8767 C   0  0  0  0  0  0  0  0  0  0  0  0
    5.6832   49.6709  129.5109 C   0  0  0  0  0  0  0  0  0  0  0  0
    7.2501   49.7357  129.4445 C   0  0  0  0  0  0  0  0  0  0  0  0
    7.8164   49.9644  130.5859 O   0  0  0  0  0  0  0  0  0  0  0  0
    8.5672   49.9472  131.6394 C   0  0  0  0  0  0  0  0  0  0  0  0
    9.2642   51.1084  132.0484 C   0  0  0  0  0  0  0  0  0  0  0  0
   10.0702   51.1407  133.1554 C   0  0  0  0  0  0  0  0  0  0  0  0
   10.2323   50.0106  133.9280 C   0  0  0  0  0  0  0  0  0  0  0  0
    9.5709   48.8470  133.5699 C   0  0  0  0  0  0  0  0  0  0  0  0
    9.7116   47.6919  134.3256 C   0  0  0  0  0  0  0  0  0  0  0  0
    9.0805   46.5069  134.0207 C   0  0  0  0  0  0  0  0  0  0  0  0
    8.2725   46.4836  132.9066 C   0  0  0  0  0  0  0  0  0  0  0  0
    8.1181   47.6394  132.1315 C   0  0  0  0  0  0  0  0  0  0  0  0
    8.7542   48.8214  132.4445 C   0  0  0  0  0  0  0  0  0  0  0  0
 20 21  1  0  0  0
 21 22  1  0  0  0
 22 23  1  0  0  0
 23 24  2  0  0  0
 24 25  1  0  0  0
 25 26  2  0  0  0
 26 27  1  0  0  0
 27 28  2  0  0  0
 28 29  1  0  0  0
 29 30  2  0  0  0
 30 31  1  0  0  0
 31 32  2  0  0  0
 21  1  1  0  0  0
  1  2  2  0  0  0
  1  3  1  0  0  0
  3  5  1  0  0  0
  5  6  2  0  0  0
  6  7  1  0  0  0
  7  8  2  0  0  0
  8  9  1  0  0  0
  9 10  1  0  0  0
 10 11  2  0  0  0
 11 12  1  0  0  0
 12 13  2  0  0  0
 10 14  1  0  0  0
 14 15  2  0  0  0
 15 16  1  0  0  0
 16 17  2  0  0  0
 17 18  1  0  0  0
 18 19  2  0  0  0
 32 23  1  0  0  0
 13  5  1  0  0  0
 19 14  1  0  0  0
 32 27  1  0  0  0
 12  8  1  0  0  0
  3  4  1  0  0  0
M  END
> <minimizedAffinity>
23.03904

> <CNNscore>
0.4876790643

> <CNNaffinity>
7.3888754845

> <CNN_VS>
3.6033999920

> <CNNaffinity_variance>
1.6397720575

$$$$
[H]c1c([H])c([H])c(-c2nc3c([H])c(N([H])C(=O)[C@]([H])(Oc4c([H])c([H])c([H])c5c([H])c([H])c([H])c([H])c45)C([H])([H])[H])c([H])c([H])c3o2)c([H])c1[H]


 32 36  0  0  0  0  0  0  0  0999 V2000
    9.0619   42.4161  130.8654 C   0  0  0  0  0  0  0  0  0  0  0  0
    8.5108   41.9053  129.8658 O   0  0  0  0  0  0  0  0  0  0  0  0
    9.1456   43.7948  131.0629 N   0  0  0  0  0  0  0  0  0  0  0  0
    9.6317   44.1241  131.9609 H   0  0  0  0  0  0  0  0  0  0  0  0
    8.6556   44.8404  130.2320 C   0  0  0  0  0  0  0  0  0  0  0  0
    8.2402   44.6127  128.9488 C   0  0  0  0  0  0  0  0  0  0  0  0
    7.7967   45.7140  128.2035 C   0  0  0  0  0  0  0  0  0  0  0  0
    7.7671   46.9891  128.7134 C   0  0  0  0  0  0  0  0  0  0  0  0
    7.4131   48.1475  128.2486 O   0  0  0  0  0  0  0  0  0  0  0  0
    7.5625   49.0975  129.1157 C   0  0  0  0  0  0  0  0  0  0  0  0
    8.0482   48.5166  130.2230 N   0  0  0  0  0  0  0  0  0  0  0  0
    8.1915   47.1785  130.0058 C   0  0  0  0  0  0  0  0  0  0  0  0
    8.6245   46.1241  130.7427 C   0  0  0  0  0  0  0  0  0  0  0  0
    7.2801   50.5218  128.9786 C   0  0  0  0  0  0  0  0  0  0  0  0
    7.3955   51.1516  127.7610 C   0  0  0  0  0  0  0  0  0  0  0  0
    7.1331   52.5037  127.6120 C   0  0  0  0  0  0  0  0  0  0  0  0
    6.7417   53.2750  128.6951 C   0  0  0  0  0  0  0  0  0  0  0  0
    6.6246   52.6490  129.9163 C   0  0  0  0  0  0  0  0  0  0  0  0
    6.8892   51.3015  130.0498 C   0  0  0  0  0  0  0  0  0  0  0  0
   10.5866   40.5850  131.0172 C   0  0  0  0  0  0  0  0  0  0  0  0
    9.6697   41.4885  131.9155 C   0  0  0  0  0  0  0  0  0  0  0  0
   10.3090   42.1372  132.8353 O   0  0  0  0  0  0  0  0  0  0  0  0
   10.8057   43.0382  133.6198 C   0  0  0  0  0  0  0  0  0  0  0  0
   10.5353   43.0154  135.0083 C   0  0  0  0  0  0  0  0  0  0  0  0
   11.0375   43.9457  135.8791 C   0  0  0  0  0  0  0  0  0  0  0  0
   11.8454   44.9626  135.4170 C   0  0  0  0  0  0  0  0  0  0  0  0
   12.1406   45.0294  134.0650 C   0  0  0  0  0  0  0  0  0  0  0  0
   12.9508   46.0395  133.5666 C   0  0  0  0  0  0  0  0  0  0  0  0
   13.2794   46.1580  132.2349 C   0  0  0  0  0  0  0  0  0  0  0  0
   12.7704   45.2187  131.3670 C   0  0  0  0  0  0  0  0  0  0  0  0
   11.9508   44.1919  131.8513 C   0  0  0  0  0  0  0  0  0  0  0  0
   11.6270   44.0814  133.1864 C   0  0  0  0  0  0  0  0  0  0  0  0
 20 21  1  0  0  0
 21 22  1  0  0  0
 22 23  1  0  0  0
 23 24  2  0  0  0
 24 25  1  0  0  0
 25 26  2  0  0  0
 26 27  1  0  0  0
 27 28  2  0  0  0
 28 29  1  0  0  0
 29 30  2  0  0  0
 30 31  1  0  0  0
 31 32  2  0  0  0
 21  1  1  0  0  0
  1  2  2  0  0  0
  1  3  1  0  0  0
  3  5  1  0  0  0
  5  6  2  0  0  0
  6  7  1  0  0  0
  7  8  2  0  0  0
  8  9  1  0  0  0
  9 10  1  0  0  0
 10 11  2  0  0  0
 11 12  1  0  0  0
 12 13  2  0  0  0
 10 14  1  0  0  0
 14 15  2  0  0  0
 15 16  1  0  0  0
 16 17  2  0  0  0
 17 18  1  0  0  0
 18 19  2  0  0  0
 32 23  1  0  0  0
 13  5  1  0  0  0
 19 14  1  0  0  0
 32 27  1  0  0  0
 12  8  1  0  0  0
  3  4  1  0  0  0
M  END
> <minimizedAffinity>
16.01987

> <CNNscore>
0.4424119592

> <CNNaffinity>
7.5647902489

> <CNN_VS>
3.3467535973

> <CNNaffinity_variance>
2.9002683163

$$$$
[H]c1c([H])c([H])c(-c2nc3c([H])c(N([H])C(=O)[C@]([H])(Oc4c([H])c([H])c([H])c5c([H])c([H])c([H])c([H])c45)C([H])([H])[H])c([H])c([H])c3o2)c([H])c1[H]


 32 36  0  0  0  0  0  0  0  0999 V2000
   11.5196   47.0929  131.3102 C   0  0  0  0  0  0  0  0  0  0  0  0
   12.0421   47.8938  130.5044 O   0  0  0  0  0  0  0  0  0  0  0  0
   10.1992   47.2094  131.7460 N   0  0  0  0  0  0  0  0  0  0  0  0
    9.8503   46.4608  132.4308 H   0  0  0  0  0  0  0  0  0  0  0  0
    9.2324   48.1908  131.3915 C   0  0  0  0  0  0  0  0  0  0  0  0
    8.0639   48.3419  132.0864 C   0  0  0  0  0  0  0  0  0  0  0  0
    7.1654   49.3222  131.6428 C   0  0  0  0  0  0  0  0  0  0  0  0
    7.4185   50.1195  130.5534 C   0  0  0  0  0  0  0  0  0  0  0  0
    6.7741   51.0721  129.9528 O   0  0  0  0  0  0  0  0  0  0  0  0
    7.4218   51.5465  128.9369 C   0  0  0  0  0  0  0  0  0  0  0  0
    8.5686   50.8539  128.8713 N   0  0  0  0  0  0  0  0  0  0  0  0
    8.6024   49.9388  129.8811 C   0  0  0  0  0  0  0  0  0  0  0  0
    9.4847   48.9944  130.2960 C   0  0  0  0  0  0  0  0  0  0  0  0
    7.0387   52.6111  128.0166 C   0  0  0  0  0  0  0  0  0  0  0  0
    5.8009   52.6155  127.4162 C   0  0  0  0  0  0  0  0  0  0  0  0
    5.4203   53.6173  126.5382 C   0  0  0  0  0  0  0  0  0  0  0  0
    6.2821   54.6589  126.2321 C   0  0  0  0  0  0  0  0  0  0  0  0
    7.5224   54.6591  126.8308 C   0  0  0  0  0  0  0  0  0  0  0  0
    7.8879   53.6547  127.7033 C   0  0  0  0  0  0  0  0  0  0  0  0
   13.0953   46.6313  133.0436 C   0  0  0  0  0  0  0  0  0  0  0  0
   12.3655   45.9368  131.8400 C   0  0  0  0  0  0  0  0  0  0  0  0
   11.6466   44.9151  132.1789 O   0  0  0  0  0  0  0  0  0  0  0  0
   10.8087   43.9302  132.2234 C   0  0  0  0  0  0  0  0  0  0  0  0
   11.1216   42.6882  131.6224 C   0  0  0  0  0  0  0  0  0  0  0  0
   10.2689   41.6165  131.6429 C   0  0  0  0  0  0  0  0  0  0  0  0
    9.0441   41.7169  132.2674 C   0  0  0  0  0  0  0  0  0  0  0  0
    8.6900   42.9125  132.8715 C   0  0  0  0  0  0  0  0  0  0  0  0
    7.4652   43.0476  133.5092 C   0  0  0  0  0  0  0  0  0  0  0  0
    7.0577   44.2087  134.1266 C   0  0  0  0  0  0  0  0  0  0  0  0
    7.9209   45.2805  134.1013 C   0  0  0  0  0  0  0  0  0  0  0  0
    9.1614   45.1633  133.4626 C   0  0  0  0  0  0  0  0  0  0  0  0
    9.5607   43.9967  132.8467 C   0  0  0  0  0  0  0  0  0  0  0  0
 20 21  1  0  0  0
 21 22  1  0  0  0
 22 23  1  0  0  0
 23 24  2  0  0  0
 24 25  1  0  0  0
 25 26  2  0  0  0
 26 27  1  0  0  0
 27 28  2  0  0  0
 28 29  1  0  0  0
 29 30  2  0  0  0
 30 31  1  0  0  0
 31 32  2  0  0  0
 21  1  1  0  0  0
  1  2  2  0  0  0
  1  3  1  0  0  0
  3  5  1  0  0  0
  5  6  2  0  0  0
  6  7  1  0  0  0
  7  8  2  0  0  0
  8  9  1  0  0  0
  9 10  1  0  0  0
 10 11  2  0  0  0
 11 12  1  0  0  0
 12 13  2  0  0  0
 10 14  1  0  0  0
 14 15  2  0  0  0
 15 16  1  0  0  0
 16 17  2  0  0  0
 17 18  1  0  0  0
 18 19  2  0  0  0
 32 23  1  0  0  0
 13  5  1  0  0  0
 19 14  1  0  0  0
 32 27  1  0  0  0
 12  8  1  0  0  0
  3  4  1  0  0  0
M  END
> <minimizedAffinity>
22.91129

> <CNNscore>
0.4391394854

> <CNNaffinity>
6.9110755920

> <CNN_VS>
3.0349261761

> <CNNaffinity_variance>
1.7176730633

$$$$
[H]c1c([H])c([H])c(-c2nc3c([H])c(N([H])C(=O)[C@]([H])(Oc4c([H])c([H])c([H])c5c([H])c([H])c([H])c([H])c45)C([H])([H])[H])c([H])c([H])c3o2)c([H])c1[H]


 32 36  0  0  0  0  0  0  0  0999 V2000
   11.5561   44.7165  129.5341 C   0  0  0  0  0  0  0  0  0  0  0  0
   11.6364   44.8791  128.2968 O   0  0  0  0  0  0  0  0  0  0  0  0
   10.5881   45.3433  130.3197 N   0  0  0  0  0  0  0  0  0  0  0  0
   10.6048   45.1248  131.3700 H   0  0  0  0  0  0  0  0  0  0  0  0
    9.5574   46.2350  129.9121 C   0  0  0  0  0  0  0  0  0  0  0  0
    8.2851   45.8038  129.6548 C   0  0  0  0  0  0  0  0  0  0  0  0
    7.3472   46.7576  129.2356 C   0  0  0  0  0  0  0  0  0  0  0  0
    7.6615   48.0855  129.0792 C   0  0  0  0  0  0  0  0  0  0  0  0
    7.0006   49.1407  128.7146 O   0  0  0  0  0  0  0  0  0  0  0  0
    7.7315   50.2096  128.7149 C   0  0  0  0  0  0  0  0  0  0  0  0
    8.9546   49.8228  129.1071 N   0  0  0  0  0  0  0  0  0  0  0  0
    8.9491   48.4810  129.3473 C   0  0  0  0  0  0  0  0  0  0  0  0
    9.8710   47.5716  129.7542 C   0  0  0  0  0  0  0  0  0  0  0  0
    7.3617   51.5778  128.3710 C   0  0  0  0  0  0  0  0  0  0  0  0
    7.0592   52.4959  129.3499 C   0  0  0  0  0  0  0  0  0  0  0  0
    6.7042   53.7992  129.0421 C   0  0  0  0  0  0  0  0  0  0  0  0
    6.6411   54.2261  127.7250 C   0  0  0  0  0  0  0  0  0  0  0  0
    6.9432   53.3107  126.7413 C   0  0  0  0  0  0  0  0  0  0  0  0
    7.2952   52.0159  127.0626 C   0  0  0  0  0  0  0  0  0  0  0  0
   13.8888   44.6107  130.0317 C   0  0  0  0  0  0  0  0  0  0  0  0
   12.5628   43.7908  130.2139 C   0  0  0  0  0  0  0  0  0  0  0  0
   12.2570   43.5521  131.4489 O   0  0  0  0  0  0  0  0  0  0  0  0
   11.7095   43.5127  132.6204 C   0  0  0  0  0  0  0  0  0  0  0  0
   12.4523   43.8494  133.7764 C   0  0  0  0  0  0  0  0  0  0  0  0
   11.9180   43.8236  135.0374 C   0  0  0  0  0  0  0  0  0  0  0  0
   10.6021   43.4581  135.2253 C   0  0  0  0  0  0  0  0  0  0  0  0
    9.8315   43.1191  134.1248 C   0  0  0  0  0  0  0  0  0  0  0  0
    8.5037   42.7471  134.2783 C   0  0  0  0  0  0  0  0  0  0  0  0
    7.6886   42.4002  133.2244 C   0  0  0  0  0  0  0  0  0  0  0  0
    8.2338   42.4291  131.9609 C   0  0  0  0  0  0  0  0  0  0  0  0
    9.5720   42.8019  131.7860 C   0  0  0  0  0  0  0  0  0  0  0  0
   10.3807   43.1475  132.8474 C   0  0  0  0  0  0  0  0  0  0  0  0
 20 21  1  0  0  0
 21 22  1  0  0  0
 22 23  1  0  0  0
 23 24  2  0  0  0
 24 25  1  0  0  0
 25 26  2  0  0  0
 26 27  1  0  0  0
 27 28  2  0  0  0
 28 29  1  0  0  0
 29 30  2  0  0  0
 30 31  1  0  0  0
 31 32  2  0  0  0
 21  1  1  0  0  0
  1  2  2  0  0  0
  1  3  1  0  0  0
  3  5  1  0  0  0
  5  6  2  0  0  0
  6  7  1  0  0  0
  7  8  2  0  0  0
  8  9  1  0  0  0
  9 10  1  0  0  0
 10 11  2  0  0  0
 11 12  1  0  0  0
 12 13  2  0  0  0
 10 14  1  0  0  0
 14 15  2  0  0  0
 15 16  1  0  0  0
 16 17  2  0  0  0
 17 18  1  0  0  0
 18 19  2  0  0  0
 32 23  1  0  0  0
 13  5  1  0  0  0
 19 14  1  0  0  0
 32 27  1  0  0  0
 12  8  1  0  0  0
  3  4  1  0  0  0
M  END
> <minimizedAffinity>
12.79073

> <CNNscore>
0.3845149875

> <CNNaffinity>
7.1056785583

> <CNN_VS>
2.7322399616

> <CNNaffinity_variance>
1.2976335287

$$$$
[H]c1c([H])c([H])c(-c2nc3c([H])c(N([H])C(=O)[C@]([H])(Oc4c([H])c([H])c([H])c5c([H])c([H])c([H])c([H])c45)C([H])([H])[H])c([H])c([H])c3o2)c([H])c1[H]


 32 36  0  0  0  0  0  0  0  0999 V2000
   12.0357   44.1518  129.9028 C   0  0  0  0  0  0  0  0  0  0  0  0
   12.2847   44.3691  128.6967 O   0  0  0  0  0  0  0  0  0  0  0  0
   10.8049   44.4505  130.4884 N   0  0  0  0  0  0  0  0  0  0  0  0
   10.6966   44.2132  131.5291 H   0  0  0  0  0  0  0  0  0  0  0  0
    9.6513   45.0222  129.8835 C   0  0  0  0  0  0  0  0  0  0  0  0
    9.0526   44.4609  128.7893 C   0  0  0  0  0  0  0  0  0  0  0  0
    7.9345   45.1143  128.2527 C   0  0  0  0  0  0  0  0  0  0  0  0
    7.4322   46.2777  128.7827 C   0  0  0  0  0  0  0  0  0  0  0  0
    6.4404   47.0597  128.4859 O   0  0  0  0  0  0  0  0  0  0  0  0
    6.3472   48.0708  129.2894 C   0  0  0  0  0  0  0  0  0  0  0  0
    7.3491   47.9378  130.1714 N   0  0  0  0  0  0  0  0  0  0  0  0
    8.0598   46.8112  129.8817 C   0  0  0  0  0  0  0  0  0  0  0  0
    9.1439   46.1926  130.4150 C   0  0  0  0  0  0  0  0  0  0  0  0
    5.3781   49.1607  129.2889 C   0  0  0  0  0  0  0  0  0  0  0  0
    5.5387   50.2503  130.1133 C   0  0  0  0  0  0  0  0  0  0  0  0
    4.6278   51.2940  130.1276 C   0  0  0  0  0  0  0  0  0  0  0  0
    3.5131   51.2754  129.3040 C   0  0  0  0  0  0  0  0  0  0  0  0
    3.3479   50.1868  128.4767 C   0  0  0  0  0  0  0  0  0  0  0  0
    4.2634   49.1546  128.4730 C   0  0  0  0  0  0  0  0  0  0  0  0
   14.3929   44.3023  130.2513 C   0  0  0  0  0  0  0  0  0  0  0  0
   13.1282   43.5322  130.7718 C   0  0  0  0  0  0  0  0  0  0  0  0
   12.9000   43.6888  132.0364 O   0  0  0  0  0  0  0  0  0  0  0  0
   12.3842   43.9381  133.1964 C   0  0  0  0  0  0  0  0  0  0  0  0
   12.4645   42.9881  134.2417 C   0  0  0  0  0  0  0  0  0  0  0  0
   11.9351   43.2053  135.4861 C   0  0  0  0  0  0  0  0  0  0  0  0
   11.2888   44.3900  135.7675 C   0  0  0  0  0  0  0  0  0  0  0  0
   11.1834   45.3535  134.7774 C   0  0  0  0  0  0  0  0  0  0  0  0
   10.5398   46.5571  135.0269 C   0  0  0  0  0  0  0  0  0  0  0  0
   10.4037   47.5517  134.0848 C   0  0  0  0  0  0  0  0  0  0  0  0
   10.9388   47.3251  132.8371 C   0  0  0  0  0  0  0  0  0  0  0  0
   11.5920   46.1165  132.5663 C   0  0  0  0  0  0  0  0  0  0  0  0
   11.7232   45.1262  133.5160 C   0  0  0  0  0  0  0  0  0  0  0  0
 20 21  1  0  0  0
 21 22  1  0  0  0
 22 23  1  0  0  0
 23 24  2  0  0  0
 24 25  1  0  0  0
 25 26  2  0  0  0
 26 27  1  0  0  0
 27 28  2  0  0  0
 28 29  1  0  0  0
 29 30  2  0  0  0
 30 31  1  0  0  0
 31 32  2  0  0  0
 21  1  1  0  0  0
  1  2  2  0  0  0
  1  3  1  0  0  0
  3  5  1  0  0  0
  5  6  2  0  0  0
  6  7  1  0  0  0
  7  8  2  0  0  0
  8  9  1  0  0  0
  9 10  1  0  0  0
 10 11  2  0  0  0
 11 12  1  0  0  0
 12 13  2  0  0  0
 10 14  1  0  0  0
 14 15  2  0  0  0
 15 16  1  0  0  0
 16 17  2  0  0  0
 17 18  1  0  0  0
 18 19  2  0  0  0
 32 23  1  0  0  0
 13  5  1  0  0  0
 19 14  1  0  0  0
 32 27  1  0  0  0
 12  8  1  0  0  0
  3  4  1  0  0  0
M  END
> <minimizedAffinity>
18.48669

> <CNNscore>
0.3778923452

> <CNNaffinity>
7.1952447891

> <CNN_VS>
2.7190279961

> <CNNaffinity_variance>
1.4457989931

$$$$
[H]c1c([H])c([H])c(-c2nc3c([H])c(N([H])C(=O)[C@]([H])(Oc4c([H])c([H])c([H])c5c([H])c([H])c([H])c([H])c45)C([H])([H])[H])c([H])c([H])c3o2)c([H])c1[H]


 32 36  0  0  0  0  0  0  0  0999 V2000
    7.8800   47.0806  129.2443 C   0  0  0  0  0  0  0  0  0  0  0  0
    7.5943   47.1619  128.0296 O   0  0  0  0  0  0  0  0  0  0  0  0
    8.8729   46.2314  129.7343 N   0  0  0  0  0  0  0  0  0  0  0  0
    9.0419   46.2490  130.7936 H   0  0  0  0  0  0  0  0  0  0  0  0
    9.7147   45.3420  129.0105 C   0  0  0  0  0  0  0  0  0  0  0  0
   11.0048   45.6640  128.6899 C   0  0  0  0  0  0  0  0  0  0  0  0
   11.7449   44.7287  127.9533 C   0  0  0  0  0  0  0  0  0  0  0  0
   11.2237   43.5228  127.5525 C   0  0  0  0  0  0  0  0  0  0  0  0
   11.6818   42.5104  126.8828 O   0  0  0  0  0  0  0  0  0  0  0  0
   10.8045   41.5681  126.7447 C   0  0  0  0  0  0  0  0  0  0  0  0
    9.6971   41.9974  127.3682 N   0  0  0  0  0  0  0  0  0  0  0  0
    9.9249   43.2345  127.8934 C   0  0  0  0  0  0  0  0  0  0  0  0
    9.1927   44.1280  128.6062 C   0  0  0  0  0  0  0  0  0  0  0  0
   10.9319   40.2842  126.0644 C   0  0  0  0  0  0  0  0  0  0  0  0
   12.1673   39.7217  125.8413 C   0  0  0  0  0  0  0  0  0  0  0  0
   12.3078   38.5041  125.1954 C   0  0  0  0  0  0  0  0  0  0  0  0
   11.1977   37.8050  124.7480 C   0  0  0  0  0  0  0  0  0  0  0  0
    9.9586   38.3640  124.9692 C   0  0  0  0  0  0  0  0  0  0  0  0
    9.8338   39.5775  125.6139 C   0  0  0  0  0  0  0  0  0  0  0  0
    5.6279   47.6202  129.8251 C   0  0  0  0  0  0  0  0  0  0  0  0
    7.1070   47.9499  130.2340 C   0  0  0  0  0  0  0  0  0  0  0  0
    7.3889   47.6650  131.4649 O   0  0  0  0  0  0  0  0  0  0  0  0
    7.8494   47.1523  132.5599 C   0  0  0  0  0  0  0  0  0  0  0  0
    7.2461   46.0069  133.1306 C   0  0  0  0  0  0  0  0  0  0  0  0
    7.6966   45.4274  134.2870 C   0  0  0  0  0  0  0  0  0  0  0  0
    8.7828   45.9571  134.9504 C   0  0  0  0  0  0  0  0  0  0  0  0
    9.4094   47.0789  134.4322 C   0  0  0  0  0  0  0  0  0  0  0  0
   10.5054   47.6372  135.0743 C   0  0  0  0  0  0  0  0  0  0  0  0
   11.1691   48.7499  134.6086 C   0  0  0  0  0  0  0  0  0  0  0  0
   10.7097   49.3256  133.4457 C   0  0  0  0  0  0  0  0  0  0  0  0
    9.6050   48.7764  132.7836 C   0  0  0  0  0  0  0  0  0  0  0  0
    8.9465   47.6622  133.2576 C   0  0  0  0  0  0  0  0  0  0  0  0
 20 21  1  0  0  0
 21 22  1  0  0  0
 22 23  1  0  0  0
 23 24  2  0  0  0
 24 25  1  0  0  0
 25 26  2  0  0  0
 26 27  1  0  0  0
 27 28  2  0  0  0
 28 29  1  0  0  0
 29 30  2  0  0  0
 30 31  1  0  0  0
 31 32  2  0  0  0
 21  1  1  0  0  0
  1  2  2  0  0  0
  1  3  1  0  0  0
  3  5  1  0  0  0
  5  6  2  0  0  0
  6  7  1  0  0  0
  7  8  2  0  0  0
  8  9  1  0  0  0
  9 10  1  0  0  0
 10 11  2  0  0  0
 11 12  1  0  0  0
 12 13  2  0  0  0
 10 14  1  0  0  0
 14 15  2  0  0  0
 15 16  1  0  0  0
 16 17  2  0  0  0
 17 18  1  0  0  0
 18 19  2  0  0  0
 32 23  1  0  0  0
 13  5  1  0  0  0
 19 14  1  0  0  0
 32 27  1  0  0  0
 12  8  1  0  0  0
  3  4  1  0  0  0
M  END
> <minimizedAffinity>
23.95611

> <CNNscore>
0.3699839413

> <CNNaffinity>
6.5963249207

> <CNN_VS>
2.4405343533

> <CNNaffinity_variance>
0.5871799588

$$$$
[H]c1c([H])c([H])c(-c2nc3c([H])c(N([H])C(=O)[C@]([H])(Oc4c([H])c([H])c([H])c5c([H])c([H])c([H])c([H])c45)C([H])([H])[H])c([H])c([H])c3o2)c([H])c1[H]


 32 36  0  0  0  0  0  0  0  0999 V2000
    9.1577   43.0001  129.8915 C   0  0  0  0  0  0  0  0  0  0  0  0
    8.6185   42.5902  128.8403 O   0  0  0  0  0  0  0  0  0  0  0  0
    9.3407   44.3549  130.1709 N   0  0  0  0  0  0  0  0  0  0  0  0
    9.8059   44.5948  131.1075 H   0  0  0  0  0  0  0  0  0  0  0  0
    8.9775   45.4798  129.3796 C   0  0  0  0  0  0  0  0  0  0  0  0
    8.9804   45.4361  128.0125 C   0  0  0  0  0  0  0  0  0  0  0  0
    8.6296   46.6055  127.3235 C   0  0  0  0  0  0  0  0  0  0  0  0
    8.2895   47.7701  127.9676 C   0  0  0  0  0  0  0  0  0  0  0  0
    7.9359   48.9561  127.5781 O   0  0  0  0  0  0  0  0  0  0  0  0
    7.7058   49.7566  128.5695 C   0  0  0  0  0  0  0  0  0  0  0  0
    7.9253   49.0414  129.6829 N   0  0  0  0  0  0  0  0  0  0  0  0
    8.2976   47.7754  129.3409 C   0  0  0  0  0  0  0  0  0  0  0  0
    8.6348   46.6527  130.0251 C   0  0  0  0  0  0  0  0  0  0  0  0
    7.2917   51.1548  128.5467 C   0  0  0  0  0  0  0  0  0  0  0  0
    6.9910   51.8224  129.7113 C   0  0  0  0  0  0  0  0  0  0  0  0
    6.5943   53.1499  129.7089 C   0  0  0  0  0  0  0  0  0  0  0  0
    6.4860   53.8568  128.5216 C   0  0  0  0  0  0  0  0  0  0  0  0
    6.7860   53.1928  127.3529 C   0  0  0  0  0  0  0  0  0  0  0  0
    7.1799   51.8706  127.3705 C   0  0  0  0  0  0  0  0  0  0  0  0
   10.6152   41.1144  130.0347 C   0  0  0  0  0  0  0  0  0  0  0  0
    9.6366   41.9712  130.9135 C   0  0  0  0  0  0  0  0  0  0  0  0
   10.1979   42.5221  131.9416 O   0  0  0  0  0  0  0  0  0  0  0  0
   10.7372   43.3366  132.7899 C   0  0  0  0  0  0  0  0  0  0  0  0
   12.0559   43.1245  133.2566 C   0  0  0  0  0  0  0  0  0  0  0  0
   12.6703   43.9577  134.1535 C   0  0  0  0  0  0  0  0  0  0  0  0
   12.0042   45.0606  134.6439 C   0  0  0  0  0  0  0  0  0  0  0  0
   10.7102   45.3127  134.2179 C   0  0  0  0  0  0  0  0  0  0  0  0
   10.0114   46.4141  134.6910 C   0  0  0  0  0  0  0  0  0  0  0  0
    8.7249   46.7167  134.3051 C   0  0  0  0  0  0  0  0  0  0  0  0
    8.1153   45.8741  133.4034 C   0  0  0  0  0  0  0  0  0  0  0  0
    8.8046   44.7576  132.9147 C   0  0  0  0  0  0  0  0  0  0  0  0
   10.0924   44.4624  133.3071 C   0  0  0  0  0  0  0  0  0  0  0  0
 20 21  1  0  0  0
 21 22  1  0  0  0
 22 23  1  0  0  0
 23 24  2  0  0  0
 24 25  1  0  0  0
 25 26  2  0  0  0
 26 27  1  0  0  0
 27 28  2  0  0  0
 28 29  1  0  0  0
 29 30  2  0  0  0
 30 31  1  0  0  0
 31 32  2  0  0  0
 21  1  1  0  0  0
  1  2  2  0  0  0
  1  3  1  0  0  0
  3  5  1  0  0  0
  5  6  2  0  0  0
  6  7  1  0  0  0
  7  8  2  0  0  0
  8  9  1  0  0  0
  9 10  1  0  0  0
 10 11  2  0  0  0
 11 12  1  0  0  0
 12 13  2  0  0  0
 10 14  1  0  0  0
 14 15  2  0  0  0
 15 16  1  0  0  0
 16 17  2  0  0  0
 17 18  1  0  0  0
 18 19  2  0  0  0
 32 23  1  0  0  0
 13  5  1  0  0  0
 19 14  1  0  0  0
 32 27  1  0  0  0
 12  8  1  0  0  0
  3  4  1  0  0  0
M  END
> <minimizedAffinity>
17.73382

> <CNNscore>
0.3662816286

> <CNNaffinity>
7.2696852684

> <CNN_VS>
2.6627521515

> <CNNaffinity_variance>
0.9882562757

$$$$
[H]c1c([H])c([H])c(-c2nc3c([H])c(N([H])C(=O)[C@]([H])(Oc4c([H])c([H])c([H])c5c([H])c([H])c([H])c([H])c45)C([H])([H])[H])c([H])c([H])c3o2)c([H])c1[H]


 32 36  0  0  0  0  0  0  0  0999 V2000
    7.1768   48.3579  128.8492 C   0  0  0  0  0  0  0  0  0  0  0  0
    6.7151   47.9558  127.7588 O   0  0  0  0  0  0  0  0  0  0  0  0
    8.2365   47.7275  129.5022 N   0  0  0  0  0  0  0  0  0  0  0  0
    8.5593   48.1632  130.4280 H   0  0  0  0  0  0  0  0  0  0  0  0
    8.9687   46.5772  129.0969 C   0  0  0  0  0  0  0  0  0  0  0  0
    8.3479   45.4185  128.7186 C   0  0  0  0  0  0  0  0  0  0  0  0
    9.1592   44.3332  128.3593 C   0  0  0  0  0  0  0  0  0  0  0  0
   10.5312   44.3977  128.3751 C   0  0  0  0  0  0  0  0  0  0  0  0
   11.4851   43.5632  128.0977 O   0  0  0  0  0  0  0  0  0  0  0  0
   12.6609   44.0800  128.2626 C   0  0  0  0  0  0  0  0  0  0  0  0
   12.4581   45.3396  128.6768 N   0  0  0  0  0  0  0  0  0  0  0  0
   11.1185   45.5779  128.7603 C   0  0  0  0  0  0  0  0  0  0  0  0
   10.3492   46.6395  129.1118 C   0  0  0  0  0  0  0  0  0  0  0  0
   13.9706   43.4719  128.0577 C   0  0  0  0  0  0  0  0  0  0  0  0
   14.8873   43.4053  129.0814 C   0  0  0  0  0  0  0  0  0  0  0  0
   16.1366   42.8330  128.9049 C   0  0  0  0  0  0  0  0  0  0  0  0
   16.5086   42.3033  127.6793 C   0  0  0  0  0  0  0  0  0  0  0  0
   15.5943   42.3675  126.6513 C   0  0  0  0  0  0  0  0  0  0  0  0
   14.3536   42.9404  126.8416 C   0  0  0  0  0  0  0  0  0  0  0  0
    5.1182   49.0553  129.8373 C   0  0  0  0  0  0  0  0  0  0  0  0
    6.5519   49.5937  129.4933 C   0  0  0  0  0  0  0  0  0  0  0  0
    7.2208   50.0046  130.5226 O   0  0  0  0  0  0  0  0  0  0  0  0
    8.0713   50.1608  131.4850 C   0  0  0  0  0  0  0  0  0  0  0  0
    8.6040   51.4384  131.7776 C   0  0  0  0  0  0  0  0  0  0  0  0
    9.5059   51.6550  132.7854 C   0  0  0  0  0  0  0  0  0  0  0  0
    9.9354   50.6051  133.5688 C   0  0  0  0  0  0  0  0  0  0  0  0
    9.4434   49.3334  133.3228 C   0  0  0  0  0  0  0  0  0  0  0  0
    9.8542   48.2546  134.0925 C   0  0  0  0  0  0  0  0  0  0  0  0
    9.4012   46.9693  133.8965 C   0  0  0  0  0  0  0  0  0  0  0  0
    8.4950   46.7609  132.8817 C   0  0  0  0  0  0  0  0  0  0  0  0
    8.0685   47.8373  132.0942 C   0  0  0  0  0  0  0  0  0  0  0  0
    8.5279   49.1208  132.2977 C   0  0  0  0  0  0  0  0  0  0  0  0
 20 21  1  0  0  0
 21 22  1  0  0  0
 22 23  1  0  0  0
 23 24  2  0  0  0
 24 25  1  0  0  0
 25 26  2  0  0  0
 26 27  1  0  0  0
 27 28  2  0  0  0
 28 29  1  0  0  0
 29 30  2  0  0  0
 30 31  1  0  0  0
 31 32  2  0  0  0
 21  1  1  0  0  0
  1  2  2  0  0  0
  1  3  1  0  0  0
  3  5  1  0  0  0
  5  6  2  0  0  0
  6  7  1  0  0  0
  7  8  2  0  0  0
  8  9  1  0  0  0
  9 10  1  0  0  0
 10 11  2  0  0  0
 11 12  1  0  0  0
 12 13  2  0  0  0
 10 14  1  0  0  0
 14 15  2  0  0  0
 15 16  1  0  0  0
 16 17  2  0  0  0
 17 18  1  0  0  0
 18 19  2  0  0  0
 32 23  1  0  0  0
 13  5  1  0  0  0
 19 14  1  0  0  0
 32 27  1  0  0  0
 12  8  1  0  0  0
  3  4  1  0  0  0
M  END
> <minimizedAffinity>
26.32502

> <CNNscore>
0.3507417440

> <CNNaffinity>
6.7831201553

> <CNN_VS>
2.3791234493

> <CNNaffinity_variance>
0.6870614886

$$$$
[H]c1c([H])c([H])c(-c2nc3c([H])c(N([H])C(=O)[C@]([H])(Oc4c([H])c([H])c([H])c5c([H])c([H])c([H])c([H])c45)C([H])([H])[H])c([H])c([H])c3o2)c([H])c1[H]


 32 36  0  0  0  0  0  0  0  0999 V2000
    8.3775   44.1973  129.6626 C   0  0  0  0  0  0  0  0  0  0  0  0
    8.0184   44.0647  128.4721 O   0  0  0  0  0  0  0  0  0  0  0  0
    8.1248   45.3503  130.4066 N   0  0  0  0  0  0  0  0  0  0  0  0
    8.4690   45.3529  131.4228 H   0  0  0  0  0  0  0  0  0  0  0  0
    7.4510   46.5360  130.0020 C   0  0  0  0  0  0  0  0  0  0  0  0
    6.0897   46.6537  130.0639 C   0  0  0  0  0  0  0  0  0  0  0  0
    5.5196   47.8546  129.6189 C   0  0  0  0  0  0  0  0  0  0  0  0
    6.2724   48.8957  129.1329 C   0  0  0  0  0  0  0  0  0  0  0  0
    6.0012   50.0776  128.6716 O   0  0  0  0  0  0  0  0  0  0  0  0
    7.0633   50.7295  128.3199 C   0  0  0  0  0  0  0  0  0  0  0  0
    8.0990   49.9143  128.5697 N   0  0  0  0  0  0  0  0  0  0  0  0
    7.6362   48.7408  129.0864 C   0  0  0  0  0  0  0  0  0  0  0  0
    8.2061   47.5850  129.5127 C   0  0  0  0  0  0  0  0  0  0  0  0
    7.1768   52.0723  127.7622 C   0  0  0  0  0  0  0  0  0  0  0  0
    7.6255   52.2685  126.4766 C   0  0  0  0  0  0  0  0  0  0  0  0
    7.7414   53.5366  125.9308 C   0  0  0  0  0  0  0  0  0  0  0  0
    7.4060   54.6610  126.6685 C   0  0  0  0  0  0  0  0  0  0  0  0
    6.9562   54.4698  127.9561 C   0  0  0  0  0  0  0  0  0  0  0  0
    6.8457   53.2009  128.4867 C   0  0  0  0  0  0  0  0  0  0  0  0
    9.2993   42.0631  129.1183 C   0  0  0  0  0  0  0  0  0  0  0  0
    9.1257   43.0453  130.3303 C   0  0  0  0  0  0  0  0  0  0  0  0
   10.2422   43.4260  130.8634 O   0  0  0  0  0  0  0  0  0  0  0  0
   11.1637   43.9686  131.5915 C   0  0  0  0  0  0  0  0  0  0  0  0
   12.1933   44.7370  130.9989 C   0  0  0  0  0  0  0  0  0  0  0  0
   13.1902   45.3314  131.7263 C   0  0  0  0  0  0  0  0  0  0  0  0
   13.2228   45.1958  133.0978 C   0  0  0  0  0  0  0  0  0  0  0  0
   12.2367   44.4530  133.7267 C   0  0  0  0  0  0  0  0  0  0  0  0
   12.2393   44.2968  135.1054 C   0  0  0  0  0  0  0  0  0  0  0  0
   11.2876   43.5716  135.7864 C   0  0  0  0  0  0  0  0  0  0  0  0
   10.2896   42.9779  135.0475 C   0  0  0  0  0  0  0  0  0  0  0  0
   10.2701   43.1243  133.6551 C   0  0  0  0  0  0  0  0  0  0  0  0
   11.2276   43.8521  132.9818 C   0  0  0  0  0  0  0  0  0  0  0  0
 20 21  1  0  0  0
 21 22  1  0  0  0
 22 23  1  0  0  0
 23 24  2  0  0  0
 24 25  1  0  0  0
 25 26  2  0  0  0
 26 27  1  0  0  0
 27 28  2  0  0  0
 28 29  1  0  0  0
 29 30  2  0  0  0
 30 31  1  0  0  0
 31 32  2  0  0  0
 21  1  1  0  0  0
  1  2  2  0  0  0
  1  3  1  0  0  0
  3  5  1  0  0  0
  5  6  2  0  0  0
  6  7  1  0  0  0
  7  8  2  0  0  0
  8  9  1  0  0  0
  9 10  1  0  0  0
 10 11  2  0  0  0
 11 12  1  0  0  0
 12 13  2  0  0  0
 10 14  1  0  0  0
 14 15  2  0  0  0
 15 16  1  0  0  0
 16 17  2  0  0  0
 17 18  1  0  0  0
 18 19  2  0  0  0
 32 23  1  0  0  0
 13  5  1  0  0  0
 19 14  1  0  0  0
 32 27  1  0  0  0
 12  8  1  0  0  0
  3  4  1  0  0  0
M  END
> <minimizedAffinity>
9.84315

> <CNNscore>
0.3354324996

> <CNNaffinity>
6.9479393959

> <CNN_VS>
2.3305647373

> <CNNaffinity_variance>
0.9838754535

$$$$
[H]C1=C2C([H])([H])C([H])([H])[C@@]3([H])[C@]4([H])C([H])([H])[C@@]([H])(C([H])([H])C([H])([H])[H])C(=O)[C@@]4(C([H])([H])[H])C([H])([H])C([H])([H])[C@]3([H])[C@@]2(C([H])([H])[H])C([H])([H])C([H])([H])C1=O


 23 26  0  0  0  0  0  0  0  0999 V2000
   12.1424   43.8677  132.8983 C   0  0  0  0  0  0  0  0  0  0  0  0
   12.0109   45.3333  132.5296 C   0  0  0  0  0  0  0  0  0  0  0  0
   10.7052   45.3584  131.8532 C   0  0  0  0  0  0  0  0  0  0  0  0
   10.3557   46.5450  131.0504 C   0  0  0  0  0  0  0  0  0  0  0  0
   10.5577   47.8365  131.7535 C   0  0  0  0  0  0  0  0  0  0  0  0
    9.3123   48.4883  132.2411 C   0  0  0  0  0  0  0  0  0  0  0  0
    8.3781   48.6164  131.0818 C   0  0  0  0  0  0  0  0  0  0  0  0
    7.6347   49.6942  130.9127 C   0  0  0  0  0  0  0  0  0  0  0  0
    6.7520   49.7443  129.7641 C   0  0  0  0  0  0  0  0  0  0  0  0
    6.5396   50.8124  129.1497 O   0  0  0  0  0  0  0  0  0  0  0  0
    6.0906   48.5058  129.3132 C   0  0  0  0  0  0  0  0  0  0  0  0
    6.8077   47.2650  129.8039 C   0  0  0  0  0  0  0  0  0  0  0  0
    8.2633   47.5264  130.0772 C   0  0  0  0  0  0  0  0  0  0  0  0
    8.8839   47.9807  128.7724 C   0  0  0  0  0  0  0  0  0  0  0  0
    8.8928   46.3102  130.6328 C   0  0  0  0  0  0  0  0  0  0  0  0
    8.8964   45.1186  129.7340 C   0  0  0  0  0  0  0  0  0  0  0  0
    9.3966   43.8843  130.4533 C   0  0  0  0  0  0  0  0  0  0  0  0
   10.7775   44.1205  130.9559 C   0  0  0  0  0  0  0  0  0  0  0  0
   11.7949   44.2822  129.8571 C   0  0  0  0  0  0  0  0  0  0  0  0
   11.2800   43.1205  131.9054 C   0  0  0  0  0  0  0  0  0  0  0  0
   11.1229   41.9228  131.9988 O   0  0  0  0  0  0  0  0  0  0  0  0
   10.7672   44.7882  134.7895 C   0  0  0  0  0  0  0  0  0  0  0  0
   11.4962   43.5870  134.2569 C   0  0  0  0  0  0  0  0  0  0  0  0
 22 23  1  0  0  0
 23  1  1  0  0  0
  1  2  1  0  0  0
  2  3  1  0  0  0
  3  4  1  0  0  0
  4  5  1  0  0  0
  5  6  1  0  0  0
  6  7  1  0  0  0
  7  8  2  0  0  0
  8  9  1  0  0  0
  9 10  2  0  0  0
  9 11  1  0  0  0
 11 12  1  0  0  0
 12 13  1  0  0  0
 13 14  1  0  0  0
 13 15  1  0  0  0
 15 16  1  0  0  0
 16 17  1  0  0  0
 17 18  1  0  0  0
 18 19  1  0  0  0
 18 20  1  0  0  0
 20 21  2  0  0  0
 20  1  1  0  0  0
 18  3  1  0  0  0
 15  4  1  0  0  0
 13  7  1  0  0  0
M  END
> <minimizedAffinity>
-10.18086

> <CNNscore>
0.7718997598

> <CNNaffinity>
8.0179805756

> <CNN_VS>
6.1890773773

> <CNNaffinity_variance>
0.4567121863

$$$$
[H]C1=C2C([H])([H])C([H])([H])[C@@]3([H])[C@]4([H])C([H])([H])[C@@]([H])(C([H])([H])C([H])([H])[H])C(=O)[C@@]4(C([H])([H])[H])C([H])([H])C([H])([H])[C@]3([H])[C@@]2(C([H])([H])[H])C([H])([H])C([H])([H])C1=O


 23 26  0  0  0  0  0  0  0  0999 V2000
    6.9809   49.2096  128.9508 C   0  0  0  0  0  0  0  0  0  0  0  0
    7.9629   48.0892  128.6654 C   0  0  0  0  0  0  0  0  0  0  0  0
    8.3232   47.6508  130.0222 C   0  0  0  0  0  0  0  0  0  0  0  0
    9.5104   46.7918  130.1879 C   0  0  0  0  0  0  0  0  0  0  0  0
    9.5446   45.6190  129.2788 C   0  0  0  0  0  0  0  0  0  0  0  0
    9.2033   44.3190  129.9167 C   0  0  0  0  0  0  0  0  0  0  0  0
   10.0965   44.1415  131.1015 C   0  0  0  0  0  0  0  0  0  0  0  0
   10.6135   42.9648  131.4036 C   0  0  0  0  0  0  0  0  0  0  0  0
   11.4703   42.8719  132.5691 C   0  0  0  0  0  0  0  0  0  0  0  0
   12.4638   42.1131  132.5904 O   0  0  0  0  0  0  0  0  0  0  0  0
   11.1598   43.6918  133.7549 C   0  0  0  0  0  0  0  0  0  0  0  0
   10.2835   44.8793  133.4137 C   0  0  0  0  0  0  0  0  0  0  0  0
   10.4333   45.2955  131.9763 C   0  0  0  0  0  0  0  0  0  0  0  0
   11.8866   45.6705  131.7731 C   0  0  0  0  0  0  0  0  0  0  0  0
    9.4965   46.3986  131.6761 C   0  0  0  0  0  0  0  0  0  0  0  0
    9.7156   47.6576  132.4474 C   0  0  0  0  0  0  0  0  0  0  0  0
    8.6055   48.6570  132.2024 C   0  0  0  0  0  0  0  0  0  0  0  0
    8.5316   48.9803  130.7514 C   0  0  0  0  0  0  0  0  0  0  0  0
    9.7415   49.7174  130.2401 C   0  0  0  0  0  0  0  0  0  0  0  0
    7.3328   49.7159  130.3320 C   0  0  0  0  0  0  0  0  0  0  0  0
    6.6621   50.5703  130.8687 O   0  0  0  0  0  0  0  0  0  0  0  0
    5.5232   47.1639  129.0245 C   0  0  0  0  0  0  0  0  0  0  0  0
    5.5577   48.6646  129.0919 C   0  0  0  0  0  0  0  0  0  0  0  0
 22 23  1  0  0  0
 23  1  1  0  0  0
  1  2  1  0  0  0
  2  3  1  0  0  0
  3  4  1  0  0  0
  4  5  1  0  0  0
  5  6  1  0  0  0
  6  7  1  0  0  0
  7  8  2  0  0  0
  8  9  1  0  0  0
  9 10  2  0  0  0
  9 11  1  0  0  0
 11 12  1  0  0  0
 12 13  1  0  0  0
 13 14  1  0  0  0
 13 15  1  0  0  0
 15 16  1  0  0  0
 16 17  1  0  0  0
 17 18  1  0  0  0
 18 19  1  0  0  0
 18 20  1  0  0  0
 20 21  2  0  0  0
 20  1  1  0  0  0
 18  3  1  0  0  0
 15  4  1  0  0  0
 13  7  1  0  0  0
M  END
> <minimizedAffinity>
-8.87307

> <CNNscore>
0.7436412573

> <CNNaffinity>
7.7924299240

> <CNN_VS>
5.7947721481

> <CNNaffinity_variance>
0.2981999516

$$$$
[H]C1=C2C([H])([H])C([H])([H])[C@@]3([H])[C@]4([H])C([H])([H])[C@@]([H])(C([H])([H])C([H])([H])[H])C(=O)[C@@]4(C([H])([H])[H])C([H])([H])C([H])([H])[C@]3([H])[C@@]2(C([H])([H])[H])C([H])([H])C([H])([H])C1=O


 23 26  0  0  0  0  0  0  0  0999 V2000
   10.4128   42.7159  133.0553 C   0  0  0  0  0  0  0  0  0  0  0  0
    9.1229   43.4792  132.8214 C   0  0  0  0  0  0  0  0  0  0  0  0
    9.6195   44.7501  132.2728 C   0  0  0  0  0  0  0  0  0  0  0  0
    8.6952   45.8979  132.2190 C   0  0  0  0  0  0  0  0  0  0  0  0
    7.3790   45.5910  131.6052 C   0  0  0  0  0  0  0  0  0  0  0  0
    7.2003   46.0940  130.2165 C   0  0  0  0  0  0  0  0  0  0  0  0
    7.4948   47.5591  130.2184 C   0  0  0  0  0  0  0  0  0  0  0  0
    6.7769   48.4064  129.5045 C   0  0  0  0  0  0  0  0  0  0  0  0
    7.1243   49.8127  129.5575 C   0  0  0  0  0  0  0  0  0  0  0  0
    6.2481   50.7038  129.5170 O   0  0  0  0  0  0  0  0  0  0  0  0
    8.5440   50.1975  129.6607 C   0  0  0  0  0  0  0  0  0  0  0  0
    9.4032   49.0700  130.1949 C   0  0  0  0  0  0  0  0  0  0  0  0
    8.6103   48.1067  131.0346 C   0  0  0  0  0  0  0  0  0  0  0  0
    8.0411   48.8959  132.1953 C   0  0  0  0  0  0  0  0  0  0  0  0
    9.4748   46.9849  131.4573 C   0  0  0  0  0  0  0  0  0  0  0  0
   10.6348   47.3553  132.3204 C   0  0  0  0  0  0  0  0  0  0  0  0
   11.5534   46.1744  132.5497 C   0  0  0  0  0  0  0  0  0  0  0  0
   10.7973   45.0679  133.1971 C   0  0  0  0  0  0  0  0  0  0  0  0
   10.3417   45.3925  134.5956 C   0  0  0  0  0  0  0  0  0  0  0  0
   11.4834   43.7707  133.2257 C   0  0  0  0  0  0  0  0  0  0  0  0
   12.6472   43.4582  133.3512 O   0  0  0  0  0  0  0  0  0  0  0  0
   10.3479   42.6225  130.5449 C   0  0  0  0  0  0  0  0  0  0  0  0
   10.8270   41.9468  131.7987 C   0  0  0  0  0  0  0  0  0  0  0  0
 22 23  1  0  0  0
 23  1  1  0  0  0
  1  2  1  0  0  0
  2  3  1  0  0  0
  3  4  1  0  0  0
  4  5  1  0  0  0
  5  6  1  0  0  0
  6  7  1  0  0  0
  7  8  2  0  0  0
  8  9  1  0  0  0
  9 10  2  0  0  0
  9 11  1  0  0  0
 11 12  1  0  0  0
 12 13  1  0  0  0
 13 14  1  0  0  0
 13 15  1  0  0  0
 15 16  1  0  0  0
 16 17  1  0  0  0
 17 18  1  0  0  0
 18 19  1  0  0  0
 18 20  1  0  0  0
 20 21  2  0  0  0
 20  1  1  0  0  0
 18  3  1  0  0  0
 15  4  1  0  0  0
 13  7  1  0  0  0
M  END
> <minimizedAffinity>
-8.63874

> <CNNscore>
0.5408446193

> <CNNaffinity>
7.5925264359

> <CNN_VS>
4.1063771248

> <CNNaffinity_variance>
0.5429480672

$$$$
[H]C1=C2C([H])([H])C([H])([H])[C@@]3([H])[C@]4([H])C([H])([H])[C@@]([H])(C([H])([H])C([H])([H])[H])C(=O)[C@@]4(C([H])([H])[H])C([H])([H])C([H])([H])[C@]3([H])[C@@]2(C([H])([H])[H])C([H])([H])C([H])([H])C1=O


 23 26  0  0  0  0  0  0  0  0999 V2000
    9.1714   42.5935  129.5239 C   0  0  0  0  0  0  0  0  0  0  0  0
    8.4504   43.9224  129.6478 C   0  0  0  0  0  0  0  0  0  0  0  0
    9.2953   44.6348  130.6181 C   0  0  0  0  0  0  0  0  0  0  0  0
    8.7541   45.8473  131.2597 C   0  0  0  0  0  0  0  0  0  0  0  0
    8.1768   46.8319  130.3107 C   0  0  0  0  0  0  0  0  0  0  0  0
    9.0266   48.0245  130.0477 C   0  0  0  0  0  0  0  0  0  0  0  0
    9.3688   48.6426  131.3644 C   0  0  0  0  0  0  0  0  0  0  0  0
    9.3982   49.9530  131.5228 C   0  0  0  0  0  0  0  0  0  0  0  0
    9.7396   50.4775  132.8302 C   0  0  0  0  0  0  0  0  0  0  0  0
    9.2024   51.5137  133.2788 O   0  0  0  0  0  0  0  0  0  0  0  0
   10.7441   49.7711  133.6466 C   0  0  0  0  0  0  0  0  0  0  0  0
   10.9151   48.3283  133.2180 C   0  0  0  0  0  0  0  0  0  0  0  0
    9.6835   47.7915  132.5422 C   0  0  0  0  0  0  0  0  0  0  0  0
    8.5520   47.8856  133.5446 C   0  0  0  0  0  0  0  0  0  0  0  0
    9.9341   46.4137  132.0697 C   0  0  0  0  0  0  0  0  0  0  0  0
   10.2343   45.4121  133.1348 C   0  0  0  0  0  0  0  0  0  0  0  0
   10.6500   44.0825  132.5428 C   0  0  0  0  0  0  0  0  0  0  0  0
    9.5625   43.5580  131.6724 C   0  0  0  0  0  0  0  0  0  0  0  0
    8.3133   43.1920  132.4302 C   0  0  0  0  0  0  0  0  0  0  0  0
    9.9331   42.4226  130.8194 C   0  0  0  0  0  0  0  0  0  0  0  0
   10.6742   41.4781  130.9830 O   0  0  0  0  0  0  0  0  0  0  0  0
   10.4683   44.0625  127.9506 C   0  0  0  0  0  0  0  0  0  0  0  0
   10.2558   42.6599  128.4459 C   0  0  0  0  0  0  0  0  0  0  0  0
 22 23  1  0  0  0
 23  1  1  0  0  0
  1  2  1  0  0  0
  2  3  1  0  0  0
  3  4  1  0  0  0
  4  5  1  0  0  0
  5  6  1  0  0  0
  6  7  1  0  0  0
  7  8  2  0  0  0
  8  9  1  0  0  0
  9 10  2  0  0  0
  9 11  1  0  0  0
 11 12  1  0  0  0
 12 13  1  0  0  0
 13 14  1  0  0  0
 13 15  1  0  0  0
 15 16  1  0  0  0
 16 17  1  0  0  0
 17 18  1  0  0  0
 18 19  1  0  0  0
 18 20  1  0  0  0
 20 21  2  0  0  0
 20  1  1  0  0  0
 18  3  1  0  0  0
 15  4  1  0  0  0
 13  7  1  0  0  0
M  END
> <minimizedAffinity>
-1.93572

> <CNNscore>
0.5277224779

> <CNNaffinity>
7.4584555626

> <CNN_VS>
3.9359946251

> <CNNaffinity_variance>
0.9887368083

$$$$
[H]C1=C2C([H])([H])C([H])([H])[C@@]3([H])[C@]4([H])C([H])([H])[C@@]([H])(C([H])([H])C([H])([H])[H])C(=O)[C@@]4(C([H])([H])[H])C([H])([H])C([H])([H])[C@]3([H])[C@@]2(C([H])([H])[H])C([H])([H])C([H])([H])C1=O


 23 26  0  0  0  0  0  0  0  0999 V2000
    8.6388   49.3344  133.1649 C   0  0  0  0  0  0  0  0  0  0  0  0
    8.2752   48.7743  131.8027 C   0  0  0  0  0  0  0  0  0  0  0  0
    9.1452   47.5914  131.7208 C   0  0  0  0  0  0  0  0  0  0  0  0
    9.3341   46.9514  130.4057 C   0  0  0  0  0  0  0  0  0  0  0  0
    8.0709   46.6705  129.6786 C   0  0  0  0  0  0  0  0  0  0  0  0
    7.6430   45.2456  129.6890 C   0  0  0  0  0  0  0  0  0  0  0  0
    8.7819   44.4215  129.1821 C   0  0  0  0  0  0  0  0  0  0  0  0
    8.5828   43.3905  128.3819 C   0  0  0  0  0  0  0  0  0  0  0  0
    9.7380   42.6390  127.9326 C   0  0  0  0  0  0  0  0  0  0  0  0
    9.7923   42.1503  126.7830 O   0  0  0  0  0  0  0  0  0  0  0  0
   10.8725   42.4479  128.8550 C   0  0  0  0  0  0  0  0  0  0  0  0
   10.8852   43.4786  129.9649 C   0  0  0  0  0  0  0  0  0  0  0  0
   10.1814   44.7461  129.5648 C   0  0  0  0  0  0  0  0  0  0  0  0
   10.9148   45.2981  128.3601 C   0  0  0  0  0  0  0  0  0  0  0  0
   10.1484   45.6808  130.7092 C   0  0  0  0  0  0  0  0  0  0  0  0
   11.4793   46.1406  131.2040 C   0  0  0  0  0  0  0  0  0  0  0  0
   11.3479   46.9451  132.4794 C   0  0  0  0  0  0  0  0  0  0  0  0
   10.4807   48.1305  132.2387 C   0  0  0  0  0  0  0  0  0  0  0  0
   11.0866   49.1329  131.2916 C   0  0  0  0  0  0  0  0  0  0  0  0
   10.0417   48.8430  133.4444 C   0  0  0  0  0  0  0  0  0  0  0  0
   10.5773   49.0686  134.5075 O   0  0  0  0  0  0  0  0  0  0  0  0
    8.0743   49.2882  135.6132 C   0  0  0  0  0  0  0  0  0  0  0  0
    7.7825   48.6983  134.2623 C   0  0  0  0  0  0  0  0  0  0  0  0
 22 23  1  0  0  0
 23  1  1  0  0  0
  1  2  1  0  0  0
  2  3  1  0  0  0
  3  4  1  0  0  0
  4  5  1  0  0  0
  5  6  1  0  0  0
  6  7  1  0  0  0
  7  8  2  0  0  0
  8  9  1  0  0  0
  9 10  2  0  0  0
  9 11  1  0  0  0
 11 12  1  0  0  0
 12 13  1  0  0  0
 13 14  1  0  0  0
 13 15  1  0  0  0
 15 16  1  0  0  0
 16 17  1  0  0  0
 17 18  1  0  0  0
 18 19  1  0  0  0
 18 20  1  0  0  0
 20 21  2  0  0  0
 20  1  1  0  0  0
 18  3  1  0  0  0
 15  4  1  0  0  0
 13  7  1  0  0  0
M  END
> <minimizedAffinity>
9.65265

> <CNNscore>
0.4886296988

> <CNNaffinity>
7.0648713112

> <CNN_VS>
3.4521059990

> <CNNaffinity_variance>
2.0149972439

$$$$
[H]C1=C2C([H])([H])C([H])([H])[C@@]3([H])[C@]4([H])C([H])([H])[C@@]([H])(C([H])([H])C([H])([H])[H])C(=O)[C@@]4(C([H])([H])[H])C([H])([H])C([H])([H])[C@]3([H])[C@@]2(C([H])([H])[H])C([H])([H])C([H])([H])C1=O


 23 26  0  0  0  0  0  0  0  0999 V2000
    6.7612   49.4324  129.6814 C   0  0  0  0  0  0  0  0  0  0  0  0
    7.2808   48.9721  131.0302 C   0  0  0  0  0  0  0  0  0  0  0  0
    8.1613   47.8572  130.6499 C   0  0  0  0  0  0  0  0  0  0  0  0
    8.6067   46.9265  131.7035 C   0  0  0  0  0  0  0  0  0  0  0  0
    9.1661   47.5919  132.9066 C   0  0  0  0  0  0  0  0  0  0  0  0
   10.6492   47.5483  133.0168 C   0  0  0  0  0  0  0  0  0  0  0  0
   11.0745   46.1196  132.9124 C   0  0  0  0  0  0  0  0  0  0  0  0
   12.0470   45.6344  133.6620 C   0  0  0  0  0  0  0  0  0  0  0  0
   12.4033   44.2384  133.5026 C   0  0  0  0  0  0  0  0  0  0  0  0
   12.7561   43.5392  134.4773 O   0  0  0  0  0  0  0  0  0  0  0  0
   12.3481   43.6328  132.1592 C   0  0  0  0  0  0  0  0  0  0  0  0
   11.4549   44.4140  131.2177 C   0  0  0  0  0  0  0  0  0  0  0  0
   10.4055   45.1976  131.9569 C   0  0  0  0  0  0  0  0  0  0  0  0
    9.5683   44.1985  132.7281 C   0  0  0  0  0  0  0  0  0  0  0  0
    9.6198   46.0052  131.0004 C   0  0  0  0  0  0  0  0  0  0  0  0
    8.8503   45.2303  129.9829 C   0  0  0  0  0  0  0  0  0  0  0  0
    8.2281   46.1421  128.9472 C   0  0  0  0  0  0  0  0  0  0  0  0
    7.3166   47.1115  129.6140 C   0  0  0  0  0  0  0  0  0  0  0  0
    6.1068   46.4650  130.2363 C   0  0  0  0  0  0  0  0  0  0  0  0
    6.8624   48.2263  128.7743 C   0  0  0  0  0  0  0  0  0  0  0  0
    6.5885   48.3113  127.5971 O   0  0  0  0  0  0  0  0  0  0  0  0
    6.9857   51.7338  128.6973 C   0  0  0  0  0  0  0  0  0  0  0  0
    7.7038   50.4638  129.0569 C   0  0  0  0  0  0  0  0  0  0  0  0
 22 23  1  0  0  0
 23  1  1  0  0  0
  1  2  1  0  0  0
  2  3  1  0  0  0
  3  4  1  0  0  0
  4  5  1  0  0  0
  5  6  1  0  0  0
  6  7  1  0  0  0
  7  8  2  0  0  0
  8  9  1  0  0  0
  9 10  2  0  0  0
  9 11  1  0  0  0
 11 12  1  0  0  0
 12 13  1  0  0  0
 13 14  1  0  0  0
 13 15  1  0  0  0
 15 16  1  0  0  0
 16 17  1  0  0  0
 17 18  1  0  0  0
 18 19  1  0  0  0
 18 20  1  0  0  0
 20 21  2  0  0  0
 20  1  1  0  0  0
 18  3  1  0  0  0
 15  4  1  0  0  0
 13  7  1  0  0  0
M  END
> <minimizedAffinity>
-6.55128

> <CNNscore>
0.4336560667

> <CNNaffinity>
7.2391600609

> <CNN_VS>
3.1393055916

> <CNNaffinity_variance>
0.3532699943

$$$$
[H]C1=C2C([H])([H])C([H])([H])[C@@]3([H])[C@]4([H])C([H])([H])[C@@]([H])(C([H])([H])C([H])([H])[H])C(=O)[C@@]4(C([H])([H])[H])C([H])([H])C([H])([H])[C@]3([H])[C@@]2(C([H])([H])[H])C([H])([H])C([H])([H])C1=O


 23 26  0  0  0  0  0  0  0  0999 V2000
   11.0813   42.6679  131.4794 C   0  0  0  0  0  0  0  0  0  0  0  0
   10.7434   43.5933  130.3259 C   0  0  0  0  0  0  0  0  0  0  0  0
    9.9169   44.6129  130.9891 C   0  0  0  0  0  0  0  0  0  0  0  0
    9.1138   45.5189  130.1471 C   0  0  0  0  0  0  0  0  0  0  0  0
    9.8742   46.1590  129.0448 C   0  0  0  0  0  0  0  0  0  0  0  0
   10.2287   47.5860  129.2714 C   0  0  0  0  0  0  0  0  0  0  0  0
    8.9705   48.3252  129.5932 C   0  0  0  0  0  0  0  0  0  0  0  0
    8.7459   49.5388  129.1243 C   0  0  0  0  0  0  0  0  0  0  0  0
    7.5020   50.1918  129.4812 C   0  0  0  0  0  0  0  0  0  0  0  0
    6.8988   50.9329  128.6749 O   0  0  0  0  0  0  0  0  0  0  0  0
    6.9386   49.9754  130.8267 C   0  0  0  0  0  0  0  0  0  0  0  0
    7.4743   48.7148  131.4734 C   0  0  0  0  0  0  0  0  0  0  0  0
    7.9272   47.7068  130.4533 C   0  0  0  0  0  0  0  0  0  0  0  0
    6.7201   47.3613  129.6063 C   0  0  0  0  0  0  0  0  0  0  0  0
    8.5176   46.5366  131.1363 C   0  0  0  0  0  0  0  0  0  0  0  0
    7.5905   45.7718  132.0213 C   0  0  0  0  0  0  0  0  0  0  0  0
    8.3273   44.7093  132.8083 C   0  0  0  0  0  0  0  0  0  0  0  0
    8.9982   43.7658  131.8728 C   0  0  0  0  0  0  0  0  0  0  0  0
    8.0341   42.9455  131.0565 C   0  0  0  0  0  0  0  0  0  0  0  0
    9.9707   42.8554  132.4889 C   0  0  0  0  0  0  0  0  0  0  0  0
   10.0089   42.2972  133.5636 O   0  0  0  0  0  0  0  0  0  0  0  0
   12.5646   44.6165  132.0432 C   0  0  0  0  0  0  0  0  0  0  0  0
   12.3440   43.1389  132.2046 C   0  0  0  0  0  0  0  0  0  0  0  0
 22 23  1  0  0  0
 23  1  1  0  0  0
  1  2  1  0  0  0
  2  3  1  0  0  0
  3  4  1  0  0  0
  4  5  1  0  0  0
  5  6  1  0  0  0
  6  7  1  0  0  0
  7  8  2  0  0  0
  8  9  1  0  0  0
  9 10  2  0  0  0
  9 11  1  0  0  0
 11 12  1  0  0  0
 12 13  1  0  0  0
 13 14  1  0  0  0
 13 15  1  0  0  0
 15 16  1  0  0  0
 16 17  1  0  0  0
 17 18  1  0  0  0
 18 19  1  0  0  0
 18 20  1  0  0  0
 20 21  2  0  0  0
 20  1  1  0  0  0
 18  3  1  0  0  0
 15  4  1  0  0  0
 13  7  1  0  0  0
M  END
> <minimizedAffinity>
-7.35336

> <CNNscore>
0.4191159606

> <CNNaffinity>
7.2637052536

> <CNN_VS>
3.0443348885

> <CNNaffinity_variance>
0.3435837328

$$$$
[H]C1=C2C([H])([H])C([H])([H])[C@@]3([H])[C@]4([H])C([H])([H])[C@@]([H])(C([H])([H])C([H])([H])[H])C(=O)[C@@]4(C([H])([H])[H])C([H])([H])C([H])([H])[C@]3([H])[C@@]2(C([H])([H])[H])C([H])([H])C([H])([H])C1=O


 23 26  0  0  0  0  0  0  0  0999 V2000
    8.9817   49.3897  133.3296 C   0  0  0  0  0  0  0  0  0  0  0  0
    8.6167   47.9301  133.1361 C   0  0  0  0  0  0  0  0  0  0  0  0
    9.2082   47.6430  131.8205 C   0  0  0  0  0  0  0  0  0  0  0  0
    8.7919   46.4144  131.1192 C   0  0  0  0  0  0  0  0  0  0  0  0
    8.8538   45.1874  131.9522 C   0  0  0  0  0  0  0  0  0  0  0  0
   10.0082   44.2927  131.6689 C   0  0  0  0  0  0  0  0  0  0  0  0
    9.9999   43.9831  130.2070 C   0  0  0  0  0  0  0  0  0  0  0  0
   10.2941   42.7773  129.7571 C   0  0  0  0  0  0  0  0  0  0  0  0
   10.2653   42.5545  128.3251 C   0  0  0  0  0  0  0  0  0  0  0  0
    9.8777   41.4688  127.8408 O   0  0  0  0  0  0  0  0  0  0  0  0
   10.7044   43.6345  127.4221 C   0  0  0  0  0  0  0  0  0  0  0  0
   10.6543   44.9927  128.0908 C   0  0  0  0  0  0  0  0  0  0  0  0
    9.6529   45.0321  129.2122 C   0  0  0  0  0  0  0  0  0  0  0  0
    8.2994   44.7210  128.6079 C   0  0  0  0  0  0  0  0  0  0  0  0
    9.7063   46.3482  129.8826 C   0  0  0  0  0  0  0  0  0  0  0  0
    9.3491   47.5203  129.0303 C   0  0  0  0  0  0  0  0  0  0  0  0
    9.6057   48.8268  129.7503 C   0  0  0  0  0  0  0  0  0  0  0  0
    8.8066   48.8744  131.0051 C   0  0  0  0  0  0  0  0  0  0  0  0
    7.3204   48.9294  130.7665 C   0  0  0  0  0  0  0  0  0  0  0  0
    9.1637   49.9507  131.9368 C   0  0  0  0  0  0  0  0  0  0  0  0
    9.5393   51.0907  131.7718 O   0  0  0  0  0  0  0  0  0  0  0  0
   10.9747   48.1863  134.2758 C   0  0  0  0  0  0  0  0  0  0  0  0
   10.3594   49.5254  133.9821 C   0  0  0  0  0  0  0  0  0  0  0  0
 22 23  1  0  0  0
 23  1  1  0  0  0
  1  2  1  0  0  0
  2  3  1  0  0  0
  3  4  1  0  0  0
  4  5  1  0  0  0
  5  6  1  0  0  0
  6  7  1  0  0  0
  7  8  2  0  0  0
  8  9  1  0  0  0
  9 10  2  0  0  0
  9 11  1  0  0  0
 11 12  1  0  0  0
 12 13  1  0  0  0
 13 14  1  0  0  0
 13 15  1  0  0  0
 15 16  1  0  0  0
 16 17  1  0  0  0
 17 18  1  0  0  0
 18 19  1  0  0  0
 18 20  1  0  0  0
 20 21  2  0  0  0
 20  1  1  0  0  0
 18  3  1  0  0  0
 15  4  1  0  0  0
 13  7  1  0  0  0
M  END
> <minimizedAffinity>
0.60616

> <CNNscore>
0.4181172252

> <CNNaffinity>
7.0804681778

> <CNN_VS>
2.9604656696

> <CNNaffinity_variance>
1.0432761908

$$$$
[H]C1=C2C([H])([H])C([H])([H])[C@@]3([H])[C@]4([H])C([H])([H])[C@@]([H])(C([H])([H])C([H])([H])[H])C(=O)[C@@]4(C([H])([H])[H])C([H])([H])C([H])([H])[C@]3([H])[C@@]2(C([H])([H])[H])C([H])([H])C([H])([H])C1=O


 23 26  0  0  0  0  0  0  0  0999 V2000
   10.4222   42.4102  130.1197 C   0  0  0  0  0  0  0  0  0  0  0  0
   10.9140   43.4345  131.1248 C   0  0  0  0  0  0  0  0  0  0  0  0
   10.2370   44.6568  130.6659 C   0  0  0  0  0  0  0  0  0  0  0  0
   10.7099   45.9546  131.1823 C   0  0  0  0  0  0  0  0  0  0  0  0
   10.8490   46.0077  132.6592 C   0  0  0  0  0  0  0  0  0  0  0  0
    9.7702   46.7493  133.3660 C   0  0  0  0  0  0  0  0  0  0  0  0
    9.6763   48.1112  132.7582 C   0  0  0  0  0  0  0  0  0  0  0  0
    9.4659   49.1830  133.4998 C   0  0  0  0  0  0  0  0  0  0  0  0
    9.3863   50.4697  132.8373 C   0  0  0  0  0  0  0  0  0  0  0  0
    9.8361   51.5075  133.3701 O   0  0  0  0  0  0  0  0  0  0  0  0
    8.7594   50.5530  131.5051 C   0  0  0  0  0  0  0  0  0  0  0  0
    8.7325   49.2113  130.8025 C   0  0  0  0  0  0  0  0  0  0  0  0
    9.8229   48.2977  131.2905 C   0  0  0  0  0  0  0  0  0  0  0  0
   11.1402   48.9876  131.0025 C   0  0  0  0  0  0  0  0  0  0  0  0
    9.6979   46.9781  130.6367 C   0  0  0  0  0  0  0  0  0  0  0  0
    9.8551   46.9771  129.1524 C   0  0  0  0  0  0  0  0  0  0  0  0
    9.5343   45.6204  128.5629 C   0  0  0  0  0  0  0  0  0  0  0  0
   10.4356   44.5916  129.1497 C   0  0  0  0  0  0  0  0  0  0  0  0
   11.8805   44.7719  128.7645 C   0  0  0  0  0  0  0  0  0  0  0  0
   10.0579   43.1989  128.8816 C   0  0  0  0  0  0  0  0  0  0  0  0
    9.5551   42.6526  127.9241 O   0  0  0  0  0  0  0  0  0  0  0  0
    8.1882   42.8012  131.2021 C   0  0  0  0  0  0  0  0  0  0  0  0
    9.1032   41.7848  130.5795 C   0  0  0  0  0  0  0  0  0  0  0  0
 22 23  1  0  0  0
 23  1  1  0  0  0
  1  2  1  0  0  0
  2  3  1  0  0  0
  3  4  1  0  0  0
  4  5  1  0  0  0
  5  6  1  0  0  0
  6  7  1  0  0  0
  7  8  2  0  0  0
  8  9  1  0  0  0
  9 10  2  0  0  0
  9 11  1  0  0  0
 11 12  1  0  0  0
 12 13  1  0  0  0
 13 14  1  0  0  0
 13 15  1  0  0  0
 15 16  1  0  0  0
 16 17  1  0  0  0
 17 18  1  0  0  0
 18 19  1  0  0  0
 18 20  1  0  0  0
 20 21  2  0  0  0
 20  1  1  0  0  0
 18  3  1  0  0  0
 15  4  1  0  0  0
 13  7  1  0  0  0
M  END
> <minimizedAffinity>
-2.98646

> <CNNscore>
0.4170076847

> <CNNaffinity>
7.0353469849

> <CNN_VS>
2.9337937832

> <CNNaffinity_variance>
0.4869118333

$$$$
[H]c1c([H])c(C2=NN(C3([H])C([H])([H])C([H])([H])N(C(=O)C([H])([H])N4C(=O)C([H])([H])C([H])([H])C4=O)C([H])([H])C3([H])[H])C(=O)C2(C([H])([H])[H])C([H])([H])[H])c([H])c(OC([H])([H])[H])c1OC([H])([H])[H]


 34 37  0  0  0  0  0  0  0  0999 V2000
    9.6996   47.0137  132.2828 C   0  0  0  0  0  0  0  0  0  0  0  0
    9.4382   47.6473  131.1960 N   0  0  0  0  0  0  0  0  0  0  0  0
    9.2872   48.9985  131.3974 N   0  0  0  0  0  0  0  0  0  0  0  0
    9.4727   49.2702  132.7760 C   0  0  0  0  0  0  0  0  0  0  0  0
    9.4272   50.3535  133.4088 O   0  0  0  0  0  0  0  0  0  0  0  0
    9.7558   47.9526  133.4165 C   0  0  0  0  0  0  0  0  0  0  0  0
   11.1199   47.9998  134.0778 C   0  0  0  0  0  0  0  0  0  0  0  0
    8.6542   47.6413  134.4100 C   0  0  0  0  0  0  0  0  0  0  0  0
    8.9878   50.0449  130.4213 C   0  0  0  0  0  0  0  0  0  0  0  0
    8.6963   49.4162  129.1060 C   0  0  0  0  0  0  0  0  0  0  0  0
    7.3768   49.8322  128.5096 C   0  0  0  0  0  0  0  0  0  0  0  0
    7.2677   51.2649  128.6250 N   0  0  0  0  0  0  0  0  0  0  0  0
    7.2584   51.8086  129.9831 C   0  0  0  0  0  0  0  0  0  0  0  0
    7.8617   50.8647  130.9794 C   0  0  0  0  0  0  0  0  0  0  0  0
    7.1728   52.1310  127.5121 C   0  0  0  0  0  0  0  0  0  0  0  0
    7.1831   51.6376  126.3615 O   0  0  0  0  0  0  0  0  0  0  0  0
    7.0624   53.5917  127.6655 C   0  0  0  0  0  0  0  0  0  0  0  0
    7.0050   54.2525  126.3779 N   0  0  0  0  0  0  0  0  0  0  0  0
    8.0683   54.4469  125.4519 C   0  0  0  0  0  0  0  0  0  0  0  0
    9.2531   54.0410  125.6101 O   0  0  0  0  0  0  0  0  0  0  0  0
    7.6067   55.1953  124.2618 C   0  0  0  0  0  0  0  0  0  0  0  0
    6.1941   55.5974  124.5718 C   0  0  0  0  0  0  0  0  0  0  0  0
    5.8386   54.8473  125.7838 C   0  0  0  0  0  0  0  0  0  0  0  0
    4.6659   54.7375  126.2448 O   0  0  0  0  0  0  0  0  0  0  0  0
   10.3017   42.8030  132.4848 C   0  0  0  0  0  0  0  0  0  0  0  0
   10.4761   43.5676  133.6218 C   0  0  0  0  0  0  0  0  0  0  0  0
   10.2730   44.9433  133.5293 C   0  0  0  0  0  0  0  0  0  0  0  0
    9.9076   45.5755  132.3615 C   0  0  0  0  0  0  0  0  0  0  0  0
    9.7395   44.7677  131.2268 C   0  0  0  0  0  0  0  0  0  0  0  0
    9.9362   43.4108  131.3030 C   0  0  0  0  0  0  0  0  0  0  0  0
   11.3419   40.7399  131.6208 C   0  0  0  0  0  0  0  0  0  0  0  0
   10.4805   41.4285  132.4776 O   0  0  0  0  0  0  0  0  0  0  0  0
    9.7648   42.6313  130.1704 O   0  0  0  0  0  0  0  0  0  0  0  0
    9.3255   43.1915  128.9329 C   0  0  0  0  0  0  0  0  0  0  0  0
 31 32  1  0  0  0
 32 25  1  0  0  0
 25 26  2  0  0  0
 26 27  1  0  0  0
 27 28  2  0  0  0
 28 29  1  0  0  0
 29 30  2  0  0  0
 30 33  1  0  0  0
 33 34  1  0  0  0
 28  1  1  0  0  0
  1  2  2  0  0  0
  2  3  1  0  0  0
  3  9  1  0  0  0
  9 10  1  0  0  0
 10 11  1  0  0  0
 11 12  1  0  0  0
 12 13  1  0  0  0
 13 14  1  0  0  0
 12 15  1  0  0  0
 15 16  2  0  0  0
 15 17  1  0  0  0
 17 18  1  0  0  0
 18 19  1  0  0  0
 19 20  2  0  0  0
 19 21  1  0  0  0
 21 22  1  0  0  0
 22 23  1  0  0  0
 23 24  2  0  0  0
  3  4  1  0  0  0
  4  5  2  0  0  0
  4  6  1  0  0  0
  6  7  1  0  0  0
  6  8  1  0  0  0
 30 25  1  0  0  0
  6  1  1  0  0  0
 14  9  1  0  0  0
 23 18  1  0  0  0
M  END
> <minimizedAffinity>
6.73390

> <CNNscore>
0.5076179504

> <CNNaffinity>
7.1144051552

> <CNN_VS>
3.6113996506

> <CNNaffinity_variance>
0.5280644894

$$$$
[H]c1c([H])c(C2=NN(C3([H])C([H])([H])C([H])([H])N(C(=O)C([H])([H])N4C(=O)C([H])([H])C([H])([H])C4=O)C([H])([H])C3([H])[H])C(=O)C2(C([H])([H])[H])C([H])([H])[H])c([H])c(OC([H])([H])[H])c1OC([H])([H])[H]


 34 37  0  0  0  0  0  0  0  0999 V2000
    9.5470   45.4295  130.1623 C   0  0  0  0  0  0  0  0  0  0  0  0
    9.0112   46.5971  130.1405 N   0  0  0  0  0  0  0  0  0  0  0  0
    9.3026   47.2889  128.9892 N   0  0  0  0  0  0  0  0  0  0  0  0
   10.1230   46.4729  128.1708 C   0  0  0  0  0  0  0  0  0  0  0  0
   10.6254   46.6915  127.0413 O   0  0  0  0  0  0  0  0  0  0  0  0
   10.3147   45.2004  128.9262 C   0  0  0  0  0  0  0  0  0  0  0  0
    9.7794   44.0441  128.1036 C   0  0  0  0  0  0  0  0  0  0  0  0
   11.7869   45.0350  129.2465 C   0  0  0  0  0  0  0  0  0  0  0  0
    8.8836   48.6327  128.5940 C   0  0  0  0  0  0  0  0  0  0  0  0
    7.4576   48.5958  128.1754 C   0  0  0  0  0  0  0  0  0  0  0  0
    6.5833   49.5870  128.8985 C   0  0  0  0  0  0  0  0  0  0  0  0
    7.2635   50.8577  128.9072 N   0  0  0  0  0  0  0  0  0  0  0  0
    8.5472   50.9029  129.6073 C   0  0  0  0  0  0  0  0  0  0  0  0
    9.1662   49.5451  129.7513 C   0  0  0  0  0  0  0  0  0  0  0  0
    6.7518   52.0194  128.2856 C   0  0  0  0  0  0  0  0  0  0  0  0
    5.6506   51.9513  127.6937 O   0  0  0  0  0  0  0  0  0  0  0  0
    7.4733   53.3032  128.3134 C   0  0  0  0  0  0  0  0  0  0  0  0
    7.3154   54.0219  127.0659 N   0  0  0  0  0  0  0  0  0  0  0  0
    8.1931   54.0227  125.9454 C   0  0  0  0  0  0  0  0  0  0  0  0
    9.2638   53.3595  125.8606 O   0  0  0  0  0  0  0  0  0  0  0  0
    7.6881   54.9108  124.8751 C   0  0  0  0  0  0  0  0  0  0  0  0
    6.4906   55.5978  125.4644 C   0  0  0  0  0  0  0  0  0  0  0  0
    6.2195   54.8863  126.7207 C   0  0  0  0  0  0  0  0  0  0  0  0
    5.1655   55.0145  127.4079 O   0  0  0  0  0  0  0  0  0  0  0  0
    9.1483   42.6768  133.3867 C   0  0  0  0  0  0  0  0  0  0  0  0
    8.3526   42.5290  132.2674 C   0  0  0  0  0  0  0  0  0  0  0  0
    8.5025   43.4429  131.2260 C   0  0  0  0  0  0  0  0  0  0  0  0
    9.4037   44.4840  131.2592 C   0  0  0  0  0  0  0  0  0  0  0  0
   10.1951   44.6034  132.4115 C   0  0  0  0  0  0  0  0  0  0  0  0
   10.0583   43.7102  133.4455 C   0  0  0  0  0  0  0  0  0  0  0  0
    8.0192   40.9355  134.7201 C   0  0  0  0  0  0  0  0  0  0  0  0
    9.0723   41.8186  134.4725 O   0  0  0  0  0  0  0  0  0  0  0  0
   10.8500   43.8463  134.5745 O   0  0  0  0  0  0  0  0  0  0  0  0
   12.2749   43.8791  134.4928 C   0  0  0  0  0  0  0  0  0  0  0  0
 31 32  1  0  0  0
 32 25  1  0  0  0
 25 26  2  0  0  0
 26 27  1  0  0  0
 27 28  2  0  0  0
 28 29  1  0  0  0
 29 30  2  0  0  0
 30 33  1  0  0  0
 33 34  1  0  0  0
 28  1  1  0  0  0
  1  2  2  0  0  0
  2  3  1  0  0  0
  3  9  1  0  0  0
  9 10  1  0  0  0
 10 11  1  0  0  0
 11 12  1  0  0  0
 12 13  1  0  0  0
 13 14  1  0  0  0
 12 15  1  0  0  0
 15 16  2  0  0  0
 15 17  1  0  0  0
 17 18  1  0  0  0
 18 19  1  0  0  0
 19 20  2  0  0  0
 19 21  1  0  0  0
 21 22  1  0  0  0
 22 23  1  0  0  0
 23 24  2  0  0  0
  3  4  1  0  0  0
  4  5  2  0  0  0
  4  6  1  0  0  0
  6  7  1  0  0  0
  6  8  1  0  0  0
 30 25  1  0  0  0
  6  1  1  0  0  0
 14  9  1  0  0  0
 23 18  1  0  0  0
M  END
> <minimizedAffinity>
13.93461

> <CNNscore>
0.5051228404

> <CNNaffinity>
7.1949758530

> <CNN_VS>
3.6343467236

> <CNNaffinity_variance>
0.7621994019

$$$$
[H]c1c([H])c(C2=NN(C3([H])C([H])([H])C([H])([H])N(C(=O)C([H])([H])N4C(=O)C([H])([H])C([H])([H])C4=O)C([H])([H])C3([H])[H])C(=O)C2(C([H])([H])[H])C([H])([H])[H])c([H])c(OC([H])([H])[H])c1OC([H])([H])[H]


 34 37  0  0  0  0  0  0  0  0999 V2000
    9.6443   46.7892  132.0052 C   0  0  0  0  0  0  0  0  0  0  0  0
    9.3752   47.4696  130.9491 N   0  0  0  0  0  0  0  0  0  0  0  0
    9.2728   48.8166  131.2022 N   0  0  0  0  0  0  0  0  0  0  0  0
    9.5025   49.0322  132.5840 C   0  0  0  0  0  0  0  0  0  0  0  0
    9.5079   50.0928  133.2558 O   0  0  0  0  0  0  0  0  0  0  0  0
    9.7597   47.6841  133.1696 C   0  0  0  0  0  0  0  0  0  0  0  0
   11.1413   47.6650  133.7951 C   0  0  0  0  0  0  0  0  0  0  0  0
    8.6748   47.3713  134.1807 C   0  0  0  0  0  0  0  0  0  0  0  0
    8.9819   49.9065  130.2722 C   0  0  0  0  0  0  0  0  0  0  0  0
    8.5925   49.3344  128.9565 C   0  0  0  0  0  0  0  0  0  0  0  0
    7.2693   49.8364  128.4400 C   0  0  0  0  0  0  0  0  0  0  0  0
    7.2428   51.2686  128.6007 N   0  0  0  0  0  0  0  0  0  0  0  0
    7.3297   51.7703  129.9722 C   0  0  0  0  0  0  0  0  0  0  0  0
    7.9301   50.7663  130.9097 C   0  0  0  0  0  0  0  0  0  0  0  0
    7.1394   52.1721  127.5187 C   0  0  0  0  0  0  0  0  0  0  0  0
    7.0664   51.7142  126.3557 O   0  0  0  0  0  0  0  0  0  0  0  0
    7.1149   53.6312  127.7183 C   0  0  0  0  0  0  0  0  0  0  0  0
    7.0468   54.3335  126.4534 N   0  0  0  0  0  0  0  0  0  0  0  0
    5.9234   54.9998  125.8878 C   0  0  0  0  0  0  0  0  0  0  0  0
    4.7884   55.0996  126.4312 O   0  0  0  0  0  0  0  0  0  0  0  0
    6.2550   55.5704  124.5635 C   0  0  0  0  0  0  0  0  0  0  0  0
    7.6416   55.0825  124.2594 C   0  0  0  0  0  0  0  0  0  0  0  0
    8.1242   54.4909  125.5144 C   0  0  0  0  0  0  0  0  0  0  0  0
    9.3246   54.1634  125.7414 O   0  0  0  0  0  0  0  0  0  0  0  0
   10.1198   42.5576  132.0409 C   0  0  0  0  0  0  0  0  0  0  0  0
   10.2111   43.2597  133.2269 C   0  0  0  0  0  0  0  0  0  0  0  0
   10.0517   44.6437  133.1884 C   0  0  0  0  0  0  0  0  0  0  0  0
    9.8082   45.3433  132.0273 C   0  0  0  0  0  0  0  0  0  0  0  0
    9.7219   44.5978  130.8419 C   0  0  0  0  0  0  0  0  0  0  0  0
    9.8768   43.2336  130.8647 C   0  0  0  0  0  0  0  0  0  0  0  0
   11.4864   40.5061  131.9474 C   0  0  0  0  0  0  0  0  0  0  0  0
   10.2639   41.1805  131.9782 O   0  0  0  0  0  0  0  0  0  0  0  0
    9.7878   42.5164  129.6824 O   0  0  0  0  0  0  0  0  0  0  0  0
    9.8152   43.1615  128.4091 C   0  0  0  0  0  0  0  0  0  0  0  0
 31 32  1  0  0  0
 32 25  1  0  0  0
 25 26  2  0  0  0
 26 27  1  0  0  0
 27 28  2  0  0  0
 28 29  1  0  0  0
 29 30  2  0  0  0
 30 33  1  0  0  0
 33 34  1  0  0  0
 28  1  1  0  0  0
  1  2  2  0  0  0
  2  3  1  0  0  0
  3  9  1  0  0  0
  9 10  1  0  0  0
 10 11  1  0  0  0
 11 12  1  0  0  0
 12 13  1  0  0  0
 13 14  1  0  0  0
 12 15  1  0  0  0
 15 16  2  0  0  0
 15 17  1  0  0  0
 17 18  1  0  0  0
 18 19  1  0  0  0
 19 20  2  0  0  0
 19 21  1  0  0  0
 21 22  1  0  0  0
 22 23  1  0  0  0
 23 24  2  0  0  0
  3  4  1  0  0  0
  4  5  2  0  0  0
  4  6  1  0  0  0
  6  7  1  0  0  0
  6  8  1  0  0  0
 30 25  1  0  0  0
  6  1  1  0  0  0
 14  9  1  0  0  0
 23 18  1  0  0  0
M  END
> <minimizedAffinity>
6.43034

> <CNNscore>
0.5023888350

> <CNNaffinity>
7.1552925110

> <CNN_VS>
3.5947389603

> <CNNaffinity_variance>
0.4641333520

$$$$
[H]c1c([H])c(C2=NN(C3([H])C([H])([H])C([H])([H])N(C(=O)C([H])([H])N4C(=O)C([H])([H])C([H])([H])C4=O)C([H])([H])C3([H])[H])C(=O)C2(C([H])([H])[H])C([H])([H])[H])c([H])c(OC([H])([H])[H])c1OC([H])([H])[H]


 34 37  0  0  0  0  0  0  0  0999 V2000
    9.4640   47.1065  132.2077 C   0  0  0  0  0  0  0  0  0  0  0  0
    9.2026   47.7589  131.1321 N   0  0  0  0  0  0  0  0  0  0  0  0
    9.1162   49.1139  131.3458 N   0  0  0  0  0  0  0  0  0  0  0  0
    9.3489   49.3670  132.7207 C   0  0  0  0  0  0  0  0  0  0  0  0
    9.3671   50.4466  133.3613 O   0  0  0  0  0  0  0  0  0  0  0  0
    9.5904   48.0336  133.3454 C   0  0  0  0  0  0  0  0  0  0  0  0
   10.9719   48.0164  133.9711 C   0  0  0  0  0  0  0  0  0  0  0  0
    8.5023   47.7633  134.3653 C   0  0  0  0  0  0  0  0  0  0  0  0
    8.8378   50.1796  130.3844 C   0  0  0  0  0  0  0  0  0  0  0  0
    8.6603   49.5841  129.0339 C   0  0  0  0  0  0  0  0  0  0  0  0
    7.3665   49.9666  128.3633 C   0  0  0  0  0  0  0  0  0  0  0  0
    7.1898   51.3891  128.5150 N   0  0  0  0  0  0  0  0  0  0  0  0
    7.0682   51.8862  129.8855 C   0  0  0  0  0  0  0  0  0  0  0  0
    7.6438   50.9345  130.8905 C   0  0  0  0  0  0  0  0  0  0  0  0
    7.1319   52.2874  127.4254 C   0  0  0  0  0  0  0  0  0  0  0  0
    7.2388   51.8336  126.2634 O   0  0  0  0  0  0  0  0  0  0  0  0
    6.9500   53.7367  127.6158 C   0  0  0  0  0  0  0  0  0  0  0  0
    6.9078   54.4323  126.3461 N   0  0  0  0  0  0  0  0  0  0  0  0
    5.7721   54.9994  125.7024 C   0  0  0  0  0  0  0  0  0  0  0  0
    4.5983   54.9995  126.1666 O   0  0  0  0  0  0  0  0  0  0  0  0
    6.1427   55.5986  124.4012 C   0  0  0  0  0  0  0  0  0  0  0  0
    7.5839   55.2335  124.1945 C   0  0  0  0  0  0  0  0  0  0  0  0
    8.0291   54.6841  125.4821 C   0  0  0  0  0  0  0  0  0  0  0  0
    9.2351   54.4617  125.7918 O   0  0  0  0  0  0  0  0  0  0  0  0
    9.9208   42.8773  132.4052 C   0  0  0  0  0  0  0  0  0  0  0  0
    8.7201   43.4099  131.9780 C   0  0  0  0  0  0  0  0  0  0  0  0
    8.5961   44.7969  131.9222 C   0  0  0  0  0  0  0  0  0  0  0  0
    9.6108   45.6601  132.2719 C   0  0  0  0  0  0  0  0  0  0  0  0
   10.8160   45.0841  132.7011 C   0  0  0  0  0  0  0  0  0  0  0  0
   10.9526   43.7191  132.7610 C   0  0  0  0  0  0  0  0  0  0  0  0
   10.9874   40.7827  131.6572 C   0  0  0  0  0  0  0  0  0  0  0  0
   10.1397   41.5116  132.4940 O   0  0  0  0  0  0  0  0  0  0  0  0
   12.1515   43.1709  133.1877 O   0  0  0  0  0  0  0  0  0  0  0  0
   12.8668   43.7051  134.3018 C   0  0  0  0  0  0  0  0  0  0  0  0
 31 32  1  0  0  0
 32 25  1  0  0  0
 25 26  2  0  0  0
 26 27  1  0  0  0
 27 28  2  0  0  0
 28 29  1  0  0  0
 29 30  2  0  0  0
 30 33  1  0  0  0
 33 34  1  0  0  0
 28  1  1  0  0  0
  1  2  2  0  0  0
  2  3  1  0  0  0
  3  9  1  0  0  0
  9 10  1  0  0  0
 10 11  1  0  0  0
 11 12  1  0  0  0
 12 13  1  0  0  0
 13 14  1  0  0  0
 12 15  1  0  0  0
 15 16  2  0  0  0
 15 17  1  0  0  0
 17 18  1  0  0  0
 18 19  1  0  0  0
 19 20  2  0  0  0
 19 21  1  0  0  0
 21 22  1  0  0  0
 22 23  1  0  0  0
 23 24  2  0  0  0
  3  4  1  0  0  0
  4  5  2  0  0  0
  4  6  1  0  0  0
  6  7  1  0  0  0
  6  8  1  0  0  0
 30 25  1  0  0  0
  6  1  1  0  0  0
 14  9  1  0  0  0
 23 18  1  0  0  0
M  END
> <minimizedAffinity>
7.27837

> <CNNscore>
0.4678982496

> <CNNaffinity>
7.0008621216

> <CNN_VS>
3.2756910324

> <CNNaffinity_variance>
0.6357636452

$$$$
[H]c1c([H])c(C2=NN(C3([H])C([H])([H])C([H])([H])N(C(=O)C([H])([H])N4C(=O)C([H])([H])C([H])([H])C4=O)C([H])([H])C3([H])[H])C(=O)C2(C([H])([H])[H])C([H])([H])[H])c([H])c(OC([H])([H])[H])c1OC([H])([H])[H]


 34 37  0  0  0  0  0  0  0  0999 V2000
    9.2610   45.4579  131.3727 C   0  0  0  0  0  0  0  0  0  0  0  0
    8.8696   46.6737  131.2329 N   0  0  0  0  0  0  0  0  0  0  0  0
    8.1467   46.8650  130.0798 N   0  0  0  0  0  0  0  0  0  0  0  0
    8.0607   45.6279  129.3936 C   0  0  0  0  0  0  0  0  0  0  0  0
    7.5025   45.3322  128.3087 O   0  0  0  0  0  0  0  0  0  0  0  0
    8.8022   44.6432  130.2344 C   0  0  0  0  0  0  0  0  0  0  0  0
    7.8610   43.5278  130.6471 C   0  0  0  0  0  0  0  0  0  0  0  0
    9.9901   44.1221  129.4503 C   0  0  0  0  0  0  0  0  0  0  0  0
    7.5364   48.0924  129.5711 C   0  0  0  0  0  0  0  0  0  0  0  0
    7.5807   49.1346  130.6304 C   0  0  0  0  0  0  0  0  0  0  0  0
    8.2249   50.4239  130.1916 C   0  0  0  0  0  0  0  0  0  0  0  0
    7.6827   50.7769  128.9035 N   0  0  0  0  0  0  0  0  0  0  0  0
    7.9354   49.8360  127.8122 C   0  0  0  0  0  0  0  0  0  0  0  0
    8.2612   48.4598  128.3096 C   0  0  0  0  0  0  0  0  0  0  0  0
    6.9426   51.9575  128.6669 C   0  0  0  0  0  0  0  0  0  0  0  0
    6.7418   52.7445  129.6198 O   0  0  0  0  0  0  0  0  0  0  0  0
    6.4023   52.2882  127.3371 C   0  0  0  0  0  0  0  0  0  0  0  0
    7.2118   53.2906  126.6755 N   0  0  0  0  0  0  0  0  0  0  0  0
    7.6477   54.5406  127.1984 C   0  0  0  0  0  0  0  0  0  0  0  0
    7.4039   54.9665  128.3614 O   0  0  0  0  0  0  0  0  0  0  0  0
    8.4345   55.2913  126.1950 C   0  0  0  0  0  0  0  0  0  0  0  0
    8.3373   54.4844  124.9330 C   0  0  0  0  0  0  0  0  0  0  0  0
    7.7361   53.2071  125.3393 C   0  0  0  0  0  0  0  0  0  0  0  0
    7.6853   52.1721  124.6141 O   0  0  0  0  0  0  0  0  0  0  0  0
   11.5322   44.0577  134.6915 C   0  0  0  0  0  0  0  0  0  0  0  0
   11.9348   43.7347  133.4103 C   0  0  0  0  0  0  0  0  0  0  0  0
   11.1745   44.2052  132.3413 C   0  0  0  0  0  0  0  0  0  0  0  0
   10.0435   44.9749  132.5006 C   0  0  0  0  0  0  0  0  0  0  0  0
    9.6642   45.2835  133.8157 C   0  0  0  0  0  0  0  0  0  0  0  0
   10.4039   44.8268  134.8787 C   0  0  0  0  0  0  0  0  0  0  0  0
   11.6434   43.0044  136.9193 C   0  0  0  0  0  0  0  0  0  0  0  0
   12.2228   43.6367  135.8171 O   0  0  0  0  0  0  0  0  0  0  0  0
   10.0117   45.1431  136.1695 O   0  0  0  0  0  0  0  0  0  0  0  0
    9.7690   46.4913  136.5712 C   0  0  0  0  0  0  0  0  0  0  0  0
 31 32  1  0  0  0
 32 25  1  0  0  0
 25 26  2  0  0  0
 26 27  1  0  0  0
 27 28  2  0  0  0
 28 29  1  0  0  0
 29 30  2  0  0  0
 30 33  1  0  0  0
 33 34  1  0  0  0
 28  1  1  0  0  0
  1  2  2  0  0  0
  2  3  1  0  0  0
  3  9  1  0  0  0
  9 10  1  0  0  0
 10 11  1  0  0  0
 11 12  1  0  0  0
 12 13  1  0  0  0
 13 14  1  0  0  0
 12 15  1  0  0  0
 15 16  2  0  0  0
 15 17  1  0  0  0
 17 18  1  0  0  0
 18 19  1  0  0  0
 19 20  2  0  0  0
 19 21  1  0  0  0
 21 22  1  0  0  0
 22 23  1  0  0  0
 23 24  2  0  0  0
  3  4  1  0  0  0
  4  5  2  0  0  0
  4  6  1  0  0  0
  6  7  1  0  0  0
  6  8  1  0  0  0
 30 25  1  0  0  0
  6  1  1  0  0  0
 14  9  1  0  0  0
 23 18  1  0  0  0
M  END
> <minimizedAffinity>
14.29100

> <CNNscore>
0.4539837539

> <CNNaffinity>
7.3446302414

> <CNN_VS>
3.3343427181

> <CNNaffinity_variance>
0.8725587726

$$$$
[H]c1c([H])c(C2=NN(C3([H])C([H])([H])C([H])([H])N(C(=O)C([H])([H])N4C(=O)C([H])([H])C([H])([H])C4=O)C([H])([H])C3([H])[H])C(=O)C2(C([H])([H])[H])C([H])([H])[H])c([H])c(OC([H])([H])[H])c1OC([H])([H])[H]


 34 37  0  0  0  0  0  0  0  0999 V2000
    8.9683   45.6721  132.8506 C   0  0  0  0  0  0  0  0  0  0  0  0
    9.0960   45.1348  131.6905 N   0  0  0  0  0  0  0  0  0  0  0  0
    8.8324   43.7860  131.7029 N   0  0  0  0  0  0  0  0  0  0  0  0
    8.4949   43.4068  133.0262 C   0  0  0  0  0  0  0  0  0  0  0  0
    8.1839   42.2872  133.5013 O   0  0  0  0  0  0  0  0  0  0  0  0
    8.5731   44.6550  133.8401 C   0  0  0  0  0  0  0  0  0  0  0  0
    7.2187   44.9319  134.4639 C   0  0  0  0  0  0  0  0  0  0  0  0
    9.6573   44.4930  134.8869 C   0  0  0  0  0  0  0  0  0  0  0  0
    8.8689   42.8326  130.5950 C   0  0  0  0  0  0  0  0  0  0  0  0
    8.6734   43.5639  129.3155 C   0  0  0  0  0  0  0  0  0  0  0  0
    9.7524   43.3089  128.2955 C   0  0  0  0  0  0  0  0  0  0  0  0
    9.9906   41.8882  128.2448 N   0  0  0  0  0  0  0  0  0  0  0  0
   10.4780   41.2667  129.4762 C   0  0  0  0  0  0  0  0  0  0  0  0
   10.1685   42.0887  130.6911 C   0  0  0  0  0  0  0  0  0  0  0  0
    9.7774   41.1034  127.0888 C   0  0  0  0  0  0  0  0  0  0  0  0
    9.3599   41.6623  126.0492 O   0  0  0  0  0  0  0  0  0  0  0  0
   10.0312   39.6526  127.0711 C   0  0  0  0  0  0  0  0  0  0  0  0
   10.2890   39.1806  125.7263 N   0  0  0  0  0  0  0  0  0  0  0  0
   11.5503   39.0300  125.0841 C   0  0  0  0  0  0  0  0  0  0  0  0
   12.6696   39.2728  125.6149 O   0  0  0  0  0  0  0  0  0  0  0  0
   11.3854   38.5458  123.6957 C   0  0  0  0  0  0  0  0  0  0  0  0
    9.9044   38.5443  123.4513 C   0  0  0  0  0  0  0  0  0  0  0  0
    9.2975   38.7682  124.7702 C   0  0  0  0  0  0  0  0  0  0  0  0
    8.0692   38.6189  125.0324 O   0  0  0  0  0  0  0  0  0  0  0  0
    9.6274   49.7971  133.6775 C   0  0  0  0  0  0  0  0  0  0  0  0
    8.6630   49.4363  132.7569 C   0  0  0  0  0  0  0  0  0  0  0  0
    8.4667   48.0799  132.5041 C   0  0  0  0  0  0  0  0  0  0  0  0
    9.1864   47.0842  133.1267 C   0  0  0  0  0  0  0  0  0  0  0  0
   10.1574   47.4873  134.0557 C   0  0  0  0  0  0  0  0  0  0  0  0
   10.3618   48.8203  134.3148 C   0  0  0  0  0  0  0  0  0  0  0  0
   10.2095   52.1156  133.0687 C   0  0  0  0  0  0  0  0  0  0  0  0
    9.8952   51.1193  133.9955 O   0  0  0  0  0  0  0  0  0  0  0  0
   11.3260   49.1968  135.2361 O   0  0  0  0  0  0  0  0  0  0  0  0
   12.7072   48.8904  135.0449 C   0  0  0  0  0  0  0  0  0  0  0  0
 31 32  1  0  0  0
 32 25  1  0  0  0
 25 26  2  0  0  0
 26 27  1  0  0  0
 27 28  2  0  0  0
 28 29  1  0  0  0
 29 30  2  0  0  0
 30 33  1  0  0  0
 33 34  1  0  0  0
 28  1  1  0  0  0
  1  2  2  0  0  0
  2  3  1  0  0  0
  3  9  1  0  0  0
  9 10  1  0  0  0
 10 11  1  0  0  0
 11 12  1  0  0  0
 12 13  1  0  0  0
 13 14  1  0  0  0
 12 15  1  0  0  0
 15 16  2  0  0  0
 15 17  1  0  0  0
 17 18  1  0  0  0
 18 19  1  0  0  0
 19 20  2  0  0  0
 19 21  1  0  0  0
 21 22  1  0  0  0
 22 23  1  0  0  0
 23 24  2  0  0  0
  3  4  1  0  0  0
  4  5  2  0  0  0
  4  6  1  0  0  0
  6  7  1  0  0  0
  6  8  1  0  0  0
 30 25  1  0  0  0
  6  1  1  0  0  0
 14  9  1  0  0  0
 23 18  1  0  0  0
M  END
> <minimizedAffinity>
35.56977

> <CNNscore>
0.4200246632

> <CNNaffinity>
6.8707351685

> <CNN_VS>
2.8858783245

> <CNNaffinity_variance>
1.4051172733

$$$$
[H]c1c([H])c(C2=NN(C3([H])C([H])([H])C([H])([H])N(C(=O)C([H])([H])N4C(=O)C([H])([H])C([H])([H])C4=O)C([H])([H])C3([H])[H])C(=O)C2(C([H])([H])[H])C([H])([H])[H])c([H])c(OC([H])([H])[H])c1OC([H])([H])[H]


 34 37  0  0  0  0  0  0  0  0999 V2000
    9.0965   46.8264  130.6344 C   0  0  0  0  0  0  0  0  0  0  0  0
    8.1620   47.0067  129.7713 N   0  0  0  0  0  0  0  0  0  0  0  0
    7.6736   48.2914  129.7845 N   0  0  0  0  0  0  0  0  0  0  0  0
    8.3746   49.0278  130.7719 C   0  0  0  0  0  0  0  0  0  0  0  0
    8.2641   50.2261  131.1295 O   0  0  0  0  0  0  0  0  0  0  0  0
    9.3514   48.0743  131.3745 C   0  0  0  0  0  0  0  0  0  0  0  0
   10.7582   48.6041  131.1731 C   0  0  0  0  0  0  0  0  0  0  0  0
    9.0190   47.8907  132.8418 C   0  0  0  0  0  0  0  0  0  0  0  0
    6.6194   48.8818  128.9614 C   0  0  0  0  0  0  0  0  0  0  0  0
    5.2946   48.4893  129.5100 C   0  0  0  0  0  0  0  0  0  0  0  0
    4.3832   49.6541  129.7969 C   0  0  0  0  0  0  0  0  0  0  0  0
    4.4205   50.5394  128.6600 N   0  0  0  0  0  0  0  0  0  0  0  0
    5.7169   51.1403  128.3465 C   0  0  0  0  0  0  0  0  0  0  0  0
    6.8607   50.3624  128.9244 C   0  0  0  0  0  0  0  0  0  0  0  0
    3.2891   50.8362  127.8665 C   0  0  0  0  0  0  0  0  0  0  0  0
    2.1924   50.3074  128.1583 O   0  0  0  0  0  0  0  0  0  0  0  0
    3.3619   51.7461  126.7105 C   0  0  0  0  0  0  0  0  0  0  0  0
    2.3241   52.7547  126.7695 N   0  0  0  0  0  0  0  0  0  0  0  0
    2.4507   54.1490  126.5132 C   0  0  0  0  0  0  0  0  0  0  0  0
    3.5157   54.7300  126.1644 O   0  0  0  0  0  0  0  0  0  0  0  0
    1.1596   54.8449  126.7088 C   0  0  0  0  0  0  0  0  0  0  0  0
    0.2296   53.8037  127.2604 C   0  0  0  0  0  0  0  0  0  0  0  0
    0.9443   52.5297  127.1052 C   0  0  0  0  0  0  0  0  0  0  0  0
    0.4195   51.3877  127.2469 O   0  0  0  0  0  0  0  0  0  0  0  0
   11.1403   43.1415  131.2497 C   0  0  0  0  0  0  0  0  0  0  0  0
   10.3810   43.3128  130.1087 C   0  0  0  0  0  0  0  0  0  0  0  0
    9.7220   44.5280  129.9309 C   0  0  0  0  0  0  0  0  0  0  0  0
    9.7914   45.5637  130.8361 C   0  0  0  0  0  0  0  0  0  0  0  0
   10.5716   45.3545  131.9832 C   0  0  0  0  0  0  0  0  0  0  0  0
   11.2265   44.1624  132.1717 C   0  0  0  0  0  0  0  0  0  0  0  0
   11.2382   40.7510  131.8501 C   0  0  0  0  0  0  0  0  0  0  0  0
   11.8317   41.9698  131.5147 O   0  0  0  0  0  0  0  0  0  0  0  0
   11.9919   43.9766  133.3118 O   0  0  0  0  0  0  0  0  0  0  0  0
   11.5182   44.3560  134.6040 C   0  0  0  0  0  0  0  0  0  0  0  0
 31 32  1  0  0  0
 32 25  1  0  0  0
 25 26  2  0  0  0
 26 27  1  0  0  0
 27 28  2  0  0  0
 28 29  1  0  0  0
 29 30  2  0  0  0
 30 33  1  0  0  0
 33 34  1  0  0  0
 28  1  1  0  0  0
  1  2  2  0  0  0
  2  3  1  0  0  0
  3  9  1  0  0  0
  9 10  1  0  0  0
 10 11  1  0  0  0
 11 12  1  0  0  0
 12 13  1  0  0  0
 13 14  1  0  0  0
 12 15  1  0  0  0
 15 16  2  0  0  0
 15 17  1  0  0  0
 17 18  1  0  0  0
 18 19  1  0  0  0
 19 20  2  0  0  0
 19 21  1  0  0  0
 21 22  1  0  0  0
 22 23  1  0  0  0
 23 24  2  0  0  0
  3  4  1  0  0  0
  4  5  2  0  0  0
  4  6  1  0  0  0
  6  7  1  0  0  0
  6  8  1  0  0  0
 30 25  1  0  0  0
  6  1  1  0  0  0
 14  9  1  0  0  0
 23 18  1  0  0  0
M  END
> <minimizedAffinity>
13.07803

> <CNNscore>
0.4120566845

> <CNNaffinity>
6.9046831131

> <CNN_VS>
2.8451209068

> <CNNaffinity_variance>
0.5027530789

$$$$
[H]c1c([H])c(C2=NN(C3([H])C([H])([H])C([H])([H])N(C(=O)C([H])([H])N4C(=O)C([H])([H])C([H])([H])C4=O)C([H])([H])C3([H])[H])C(=O)C2(C([H])([H])[H])C([H])([H])[H])c([H])c(OC([H])([H])[H])c1OC([H])([H])[H]


 34 37  0  0  0  0  0  0  0  0999 V2000
    9.9453   45.7855  130.6985 C   0  0  0  0  0  0  0  0  0  0  0  0
    9.4347   46.6061  129.8520 N   0  0  0  0  0  0  0  0  0  0  0  0
    9.5956   47.9184  130.2277 N   0  0  0  0  0  0  0  0  0  0  0  0
   10.2919   47.9496  131.4618 C   0  0  0  0  0  0  0  0  0  0  0  0
   10.6543   48.9199  132.1713 O   0  0  0  0  0  0  0  0  0  0  0  0
   10.5509   46.5244  131.8197 C   0  0  0  0  0  0  0  0  0  0  0  0
   12.0466   46.3010  131.9357 C   0  0  0  0  0  0  0  0  0  0  0  0
    9.8272   46.2019  133.1118 C   0  0  0  0  0  0  0  0  0  0  0  0
    9.1588   49.1314  129.5384 C   0  0  0  0  0  0  0  0  0  0  0  0
    7.9547   48.8224  128.7230 C   0  0  0  0  0  0  0  0  0  0  0  0
    6.7800   49.7231  129.0033 C   0  0  0  0  0  0  0  0  0  0  0  0
    7.2582   51.0825  129.0337 N   0  0  0  0  0  0  0  0  0  0  0  0
    8.2383   51.4035  130.0711 C   0  0  0  0  0  0  0  0  0  0  0  0
    8.9445   50.1851  130.5851 C   0  0  0  0  0  0  0  0  0  0  0  0
    6.8285   52.0797  128.1289 C   0  0  0  0  0  0  0  0  0  0  0  0
    5.9887   51.7763  127.2513 O   0  0  0  0  0  0  0  0  0  0  0  0
    7.3378   53.4606  128.1878 C   0  0  0  0  0  0  0  0  0  0  0  0
    7.1626   54.1398  126.9206 N   0  0  0  0  0  0  0  0  0  0  0  0
    8.0841   54.2132  125.8384 C   0  0  0  0  0  0  0  0  0  0  0  0
    9.2194   53.6620  125.8120 O   0  0  0  0  0  0  0  0  0  0  0  0
    7.5388   55.0281  124.7302 C   0  0  0  0  0  0  0  0  0  0  0  0
    6.2529   55.5977  125.2547 C   0  0  0  0  0  0  0  0  0  0  0  0
    6.0007   54.8818  126.5125 C   0  0  0  0  0  0  0  0  0  0  0  0
    4.9099   54.9119  127.1520 O   0  0  0  0  0  0  0  0  0  0  0  0
    9.8846   41.5466  130.2956 C   0  0  0  0  0  0  0  0  0  0  0  0
    9.2716   42.3274  129.3352 C   0  0  0  0  0  0  0  0  0  0  0  0
    9.3055   43.7120  129.4901 C   0  0  0  0  0  0  0  0  0  0  0  0
    9.9194   44.3378  130.5524 C   0  0  0  0  0  0  0  0  0  0  0  0
   10.5317   43.5136  131.5085 C   0  0  0  0  0  0  0  0  0  0  0  0
   10.5062   42.1478  131.3689 C   0  0  0  0  0  0  0  0  0  0  0  0
    8.8315   39.3680  129.8166 C   0  0  0  0  0  0  0  0  0  0  0  0
    9.9037   40.1623  130.2285 O   0  0  0  0  0  0  0  0  0  0  0  0
   11.1172   41.3521  132.3247 O   0  0  0  0  0  0  0  0  0  0  0  0
   11.7620   40.1259  131.9802 C   0  0  0  0  0  0  0  0  0  0  0  0
 31 32  1  0  0  0
 32 25  1  0  0  0
 25 26  2  0  0  0
 26 27  1  0  0  0
 27 28  2  0  0  0
 28 29  1  0  0  0
 29 30  2  0  0  0
 30 33  1  0  0  0
 33 34  1  0  0  0
 28  1  1  0  0  0
  1  2  2  0  0  0
  2  3  1  0  0  0
  3  9  1  0  0  0
  9 10  1  0  0  0
 10 11  1  0  0  0
 11 12  1  0  0  0
 12 13  1  0  0  0
 13 14  1  0  0  0
 12 15  1  0  0  0
 15 16  2  0  0  0
 15 17  1  0  0  0
 17 18  1  0  0  0
 18 19  1  0  0  0
 19 20  2  0  0  0
 19 21  1  0  0  0
 21 22  1  0  0  0
 22 23  1  0  0  0
 23 24  2  0  0  0
  3  4  1  0  0  0
  4  5  2  0  0  0
  4  6  1  0  0  0
  6  7  1  0  0  0
  6  8  1  0  0  0
 30 25  1  0  0  0
  6  1  1  0  0  0
 14  9  1  0  0  0
 23 18  1  0  0  0
M  END
> <minimizedAffinity>
16.48284

> <CNNscore>
0.3959297538

> <CNNaffinity>
7.0243735313

> <CNN_VS>
2.7811584473

> <CNNaffinity_variance>
0.6558990479

$$$$
[H]c1c([H])c(C2=NN(C3([H])C([H])([H])C([H])([H])N(C(=O)C([H])([H])N4C(=O)C([H])([H])C([H])([H])C4=O)C([H])([H])C3([H])[H])C(=O)C2(C([H])([H])[H])C([H])([H])[H])c([H])c(OC([H])([H])[H])c1OC([H])([H])[H]


 34 37  0  0  0  0  0  0  0  0999 V2000
    9.2246   46.3123  132.4880 C   0  0  0  0  0  0  0  0  0  0  0  0
    9.2226   45.6951  131.3611 N   0  0  0  0  0  0  0  0  0  0  0  0
    9.0913   44.3346  131.5060 N   0  0  0  0  0  0  0  0  0  0  0  0
    8.9974   44.0376  132.8886 C   0  0  0  0  0  0  0  0  0  0  0  0
    8.8688   42.9385  133.4815 O   0  0  0  0  0  0  0  0  0  0  0  0
    9.0824   45.3497  133.5940 C   0  0  0  0  0  0  0  0  0  0  0  0
    7.8196   45.5647  134.4061 C   0  0  0  0  0  0  0  0  0  0  0  0
   10.3245   45.3622  134.4626 C   0  0  0  0  0  0  0  0  0  0  0  0
    9.0465   43.3009  130.4731 C   0  0  0  0  0  0  0  0  0  0  0  0
    8.6998   43.9277  129.1703 C   0  0  0  0  0  0  0  0  0  0  0  0
    9.6782   43.6221  128.0663 C   0  0  0  0  0  0  0  0  0  0  0  0
    9.9555   42.2079  128.0955 N   0  0  0  0  0  0  0  0  0  0  0  0
   10.5840   41.6940  129.3125 C   0  0  0  0  0  0  0  0  0  0  0  0
   10.3723   42.5983  130.4892 C   0  0  0  0  0  0  0  0  0  0  0  0
    9.6522   41.3324  127.0282 C   0  0  0  0  0  0  0  0  0  0  0  0
    9.1144   41.8002  125.9988 O   0  0  0  0  0  0  0  0  0  0  0  0
    9.9491   39.8911  127.0908 C   0  0  0  0  0  0  0  0  0  0  0  0
   10.2667   39.3625  125.7802 N   0  0  0  0  0  0  0  0  0  0  0  0
    9.3598   38.8965  124.7871 C   0  0  0  0  0  0  0  0  0  0  0  0
    8.1021   38.8938  124.8954 O   0  0  0  0  0  0  0  0  0  0  0  0
   10.0841   38.4078  123.5930 C   0  0  0  0  0  0  0  0  0  0  0  0
   11.5375   38.4581  123.9649 C   0  0  0  0  0  0  0  0  0  0  0  0
   11.5849   39.2072  125.2277 C   0  0  0  0  0  0  0  0  0  0  0  0
   12.6411   39.6562  125.7594 O   0  0  0  0  0  0  0  0  0  0  0  0
    9.5738   50.5381  132.8806 C   0  0  0  0  0  0  0  0  0  0  0  0
   10.2021   49.7183  133.7976 C   0  0  0  0  0  0  0  0  0  0  0  0
   10.0724   48.3388  133.6470 C   0  0  0  0  0  0  0  0  0  0  0  0
    9.3496   47.7552  132.6302 C   0  0  0  0  0  0  0  0  0  0  0  0
    8.7250   48.6184  131.7174 C   0  0  0  0  0  0  0  0  0  0  0  0
    8.8441   49.9796  131.8533 C   0  0  0  0  0  0  0  0  0  0  0  0
    9.7909   52.6571  134.1246 C   0  0  0  0  0  0  0  0  0  0  0  0
    9.6447   51.9208  132.9470 O   0  0  0  0  0  0  0  0  0  0  0  0
    8.2192   50.8142  130.9406 O   0  0  0  0  0  0  0  0  0  0  0  0
    7.2740   50.3169  129.9933 C   0  0  0  0  0  0  0  0  0  0  0  0
 31 32  1  0  0  0
 32 25  1  0  0  0
 25 26  2  0  0  0
 26 27  1  0  0  0
 27 28  2  0  0  0
 28 29  1  0  0  0
 29 30  2  0  0  0
 30 33  1  0  0  0
 33 34  1  0  0  0
 28  1  1  0  0  0
  1  2  2  0  0  0
  2  3  1  0  0  0
  3  9  1  0  0  0
  9 10  1  0  0  0
 10 11  1  0  0  0
 11 12  1  0  0  0
 12 13  1  0  0  0
 13 14  1  0  0  0
 12 15  1  0  0  0
 15 16  2  0  0  0
 15 17  1  0  0  0
 17 18  1  0  0  0
 18 19  1  0  0  0
 19 20  2  0  0  0
 19 21  1  0  0  0
 21 22  1  0  0  0
 22 23  1  0  0  0
 23 24  2  0  0  0
  3  4  1  0  0  0
  4  5  2  0  0  0
  4  6  1  0  0  0
  6  7  1  0  0  0
  6  8  1  0  0  0
 30 25  1  0  0  0
  6  1  1  0  0  0
 14  9  1  0  0  0
 23 18  1  0  0  0
M  END
> <minimizedAffinity>
23.51913

> <CNNscore>
0.3762264848

> <CNNaffinity>
7.2789406776

> <CNN_VS>
2.7385301590

> <CNNaffinity_variance>
0.7969924808

$$$$
[H]N=C(N([H])[H])N([H])C([H])([H])C([H])([H])C([H])([H])[C@@]([H])(C(=O)O[H])N([H])C(=O)[C@]([H])(N([H])C(=O)[C@@]([H])(N([H])C(=O)[C@@]([H])(N([H])C(=O)[C@@]([H])(N([H])C(=O)[C@]([H])(N([H])C(=O)[C@@]([H])(N([H])C(=O)C([H])(C([H])([H])O[H])C([H])([H])O[H])C([H])([H])O[H])C([H])([H])O[H])C([H])([H])O[H])C([H])([H])O[H])C([H])([H])O[H])C([H])([H])O[H]


 75 74  0  0  0  0  0  0  0  0999 V2000
    6.4165   50.8650  128.5631 C   0  0  0  0  0  0  0  0  0  0  0  0
    7.1482   52.8047  127.1664 N   0  0  0  0  0  0  0  0  0  0  0  0
    6.9939   52.2179  128.4244 C   0  0  0  0  0  0  0  0  0  0  0  0
    7.3492   52.8412  129.4478 O   0  0  0  0  0  0  0  0  0  0  0  0
    6.8233   52.2509  126.3184 H   0  0  0  0  0  0  0  0  0  0  0  0
    7.6994   54.0760  126.8801 C   0  0  0  0  0  0  0  0  0  0  0  0
    6.9277   56.0954  125.5559 N   0  0  0  0  0  0  0  0  0  0  0  0
    6.7442   55.1660  126.5882 C   0  0  0  0  0  0  0  0  0  0  0  0
    5.7256   55.2519  127.3041 O   0  0  0  0  0  0  0  0  0  0  0  0
    7.7665   56.0363  124.9549 H   0  0  0  0  0  0  0  0  0  0  0  0
    5.9763   57.1498  125.2933 C   0  0  0  0  0  0  0  0  0  0  0  0
    4.4446   55.1308  124.8280 N   0  0  0  0  0  0  0  0  0  0  0  0
    4.6760   56.5133  124.9934 C   0  0  0  0  0  0  0  0  0  0  0  0
    3.6577   57.2777  124.8664 O   0  0  0  0  0  0  0  0  0  0  0  0
    5.1626   54.3810  124.9138 H   0  0  0  0  0  0  0  0  0  0  0  0
    3.1006   54.6343  124.5200 C   0  0  0  0  0  0  0  0  0  0  0  0
    2.4572   54.0991  125.7310 C   0  0  0  0  0  0  0  0  0  0  0  0
    2.1196   52.7506  125.7503 O   0  0  0  0  0  0  0  0  0  0  0  0
    2.1876   54.7599  126.7480 O   0  0  0  0  0  0  0  0  0  0  0  0
    2.8581   52.0509  125.8490 H   0  0  0  0  0  0  0  0  0  0  0  0
    3.2248   53.4826  123.4981 C   0  0  0  0  0  0  0  0  0  0  0  0
    3.9283   53.9260  122.2783 C   0  0  0  0  0  0  0  0  0  0  0  0
    5.2870   53.3483  122.0849 C   0  0  0  0  0  0  0  0  0  0  0  0
    6.2973   54.3016  121.7856 N   0  0  0  0  0  0  0  0  0  0  0  0
    6.0512   55.0252  121.0274 H   0  0  0  0  0  0  0  0  0  0  0  0
    8.2781   53.2223  122.6491 N   0  0  0  0  0  0  0  0  0  0  0  0
    7.5866   54.4190  122.3569 C   0  0  0  0  0  0  0  0  0  0  0  0
    8.1547   55.5689  122.6050 N   0  0  0  0  0  0  0  0  0  0  0  0
    8.5897   53.0208  123.6127 H   0  0  0  0  0  0  0  0  0  0  0  0
    8.4692   52.5494  121.8886 H   0  0  0  0  0  0  0  0  0  0  0  0
    7.6309   56.4403  122.3839 H   0  0  0  0  0  0  0  0  0  0  0  0
    5.8045   58.0139  126.5390 C   0  0  0  0  0  0  0  0  0  0  0  0
    5.4141   59.2737  126.1309 O   0  0  0  0  0  0  0  0  0  0  0  0
    6.1623   59.9073  125.9644 H   0  0  0  0  0  0  0  0  0  0  0  0
    8.6385   53.9481  125.6892 C   0  0  0  0  0  0  0  0  0  0  0  0
    9.2771   55.1911  125.5106 O   0  0  0  0  0  0  0  0  0  0  0  0
    8.8974   55.7115  124.7660 H   0  0  0  0  0  0  0  0  0  0  0  0
    7.4881   49.8911  128.7439 N   0  0  0  0  0  0  0  0  0  0  0  0
    7.2648   48.4925  128.7667 C   0  0  0  0  0  0  0  0  0  0  0  0
    6.1227   48.0103  128.6145 O   0  0  0  0  0  0  0  0  0  0  0  0
    8.4527   50.2493  128.8591 H   0  0  0  0  0  0  0  0  0  0  0  0
    8.4088   47.5508  128.9782 C   0  0  0  0  0  0  0  0  0  0  0  0
    8.9821   47.7839  130.2652 N   0  0  0  0  0  0  0  0  0  0  0  0
   10.0180   48.6931  130.5758 C   0  0  0  0  0  0  0  0  0  0  0  0
   10.4941   49.4028  129.6571 O   0  0  0  0  0  0  0  0  0  0  0  0
    8.5813   47.2279  131.0660 H   0  0  0  0  0  0  0  0  0  0  0  0
   10.5629   48.8444  131.9309 C   0  0  0  0  0  0  0  0  0  0  0  0
   10.5137   47.5886  132.6895 N   0  0  0  0  0  0  0  0  0  0  0  0
    9.3101   47.0740  133.1686 C   0  0  0  0  0  0  0  0  0  0  0  0
    8.2304   47.6950  132.9290 O   0  0  0  0  0  0  0  0  0  0  0  0
   11.4319   47.1286  132.8300 H   0  0  0  0  0  0  0  0  0  0  0  0
    9.2522   45.8186  133.9512 C   0  0  0  0  0  0  0  0  0  0  0  0
   10.0574   44.7690  133.3782 N   0  0  0  0  0  0  0  0  0  0  0  0
    9.6544   43.9235  132.3338 C   0  0  0  0  0  0  0  0  0  0  0  0
    8.5232   44.0304  131.8070 O   0  0  0  0  0  0  0  0  0  0  0  0
   11.0268   44.6489  133.8003 H   0  0  0  0  0  0  0  0  0  0  0  0
   10.5767   42.8586  131.8162 C   0  0  0  0  0  0  0  0  0  0  0  0
   10.6053   43.0597  130.3074 C   0  0  0  0  0  0  0  0  0  0  0  0
    9.4678   42.4798  129.7742 O   0  0  0  0  0  0  0  0  0  0  0  0
    9.3271   42.7572  128.8520 H   0  0  0  0  0  0  0  0  0  0  0  0
   11.9773   43.0270  132.3395 C   0  0  0  0  0  0  0  0  0  0  0  0
   12.5494   44.1064  131.6711 O   0  0  0  0  0  0  0  0  0  0  0  0
   13.1471   44.6471  132.2756 H   0  0  0  0  0  0  0  0  0  0  0  0
    9.4823   46.0475  135.4134 C   0  0  0  0  0  0  0  0  0  0  0  0
   10.4496   45.1407  135.8706 O   0  0  0  0  0  0  0  0  0  0  0  0
   10.2298   44.2762  135.4128 H   0  0  0  0  0  0  0  0  0  0  0  0
    9.6760   49.8746  132.6651 C   0  0  0  0  0  0  0  0  0  0  0  0
    8.8027   50.4647  131.7771 O   0  0  0  0  0  0  0  0  0  0  0  0
    9.2790   51.1038  131.1596 H   0  0  0  0  0  0  0  0  0  0  0  0
    7.9391   46.1570  128.7628 C   0  0  0  0  0  0  0  0  0  0  0  0
    8.9629   45.2624  129.1268 O   0  0  0  0  0  0  0  0  0  0  0  0
    9.5028   45.1057  128.3268 H   0  0  0  0  0  0  0  0  0  0  0  0
    5.3764   50.7505  129.6496 C   0  0  0  0  0  0  0  0  0  0  0  0
    5.9734   50.6817  130.9153 O   0  0  0  0  0  0  0  0  0  0  0  0
    5.3853   50.2747  131.5817 H   0  0  0  0  0  0  0  0  0  0  0  0
 26 27  1  0  0  0
 27 28  2  0  0  0
 27 24  1  0  0  0
 24 23  1  0  0  0
 23 22  1  0  0  0
 22 21  1  0  0  0
 21 16  1  0  0  0
 16 12  1  0  0  0
 12 13  1  0  0  0
 13 14  2  0  0  0
 13 11  1  0  0  0
 11 32  1  0  0  0
 32 33  1  0  0  0
 11  7  1  0  0  0
  7  8  1  0  0  0
  8  9  2  0  0  0
  8  6  1  0  0  0
  6 35  1  0  0  0
 35 36  1  0  0  0
  6  2  1  0  0  0
  2  3  1  0  0  0
  3  4  2  0  0  0
  3  1  1  0  0  0
  1 73  1  0  0  0
 73 74  1  0  0  0
  1 38  1  0  0  0
 38 39  1  0  0  0
 39 40  2  0  0  0
 39 42  1  0  0  0
 42 70  1  0  0  0
 70 71  1  0  0  0
 42 43  1  0  0  0
 43 44  1  0  0  0
 44 45  2  0  0  0
 44 47  1  0  0  0
 47 67  1  0  0  0
 67 68  1  0  0  0
 47 48  1  0  0  0
 48 49  1  0  0  0
 49 50  2  0  0  0
 49 52  1  0  0  0
 52 64  1  0  0  0
 64 65  1  0  0  0
 52 53  1  0  0  0
 53 54  1  0  0  0
 54 55  2  0  0  0
 54 57  1  0  0  0
 57 61  1  0  0  0
 61 62  1  0  0  0
 57 58  1  0  0  0
 58 59  1  0  0  0
 16 17  1  0  0  0
 17 18  1  0  0  0
 17 19  2  0  0  0
 26 29  1  0  0  0
 26 30  1  0  0  0
 28 31  1  0  0  0
 24 25  1  0  0  0
 12 15  1  0  0  0
 33 34  1  0  0  0
  7 10  1  0  0  0
 36 37  1  0  0  0
  2  5  1  0  0  0
 74 75  1  0  0  0
 38 41  1  0  0  0
 71 72  1  0  0  0
 43 46  1  0  0  0
 68 69  1  0  0  0
 48 51  1  0  0  0
 65 66  1  0  0  0
 53 56  1  0  0  0
 62 63  1  0  0  0
 59 60  1  0  0  0
 18 20  1  0  0  0
M  END
> <minimizedAffinity>
-3.02708

> <CNNscore>
0.3084108829

> <CNNaffinity>
6.3920907974

> <CNN_VS>
1.9713903666

> <CNNaffinity_variance>
0.4839871824

$$$$
[H]N=C(N([H])[H])N([H])C([H])([H])C([H])([H])C([H])([H])[C@@]([H])(C(=O)O[H])N([H])C(=O)[C@]([H])(N([H])C(=O)[C@@]([H])(N([H])C(=O)[C@@]([H])(N([H])C(=O)[C@@]([H])(N([H])C(=O)[C@]([H])(N([H])C(=O)[C@@]([H])(N([H])C(=O)C([H])(C([H])([H])O[H])C([H])([H])O[H])C([H])([H])O[H])C([H])([H])O[H])C([H])([H])O[H])C([H])([H])O[H])C([H])([H])O[H])C([H])([H])O[H]


 75 74  0  0  0  0  0  0  0  0999 V2000
    6.8277   51.3677  128.8441 C   0  0  0  0  0  0  0  0  0  0  0  0
    8.3458   49.8961  130.1776 N   0  0  0  0  0  0  0  0  0  0  0  0
    7.6065   50.1238  129.0148 C   0  0  0  0  0  0  0  0  0  0  0  0
    7.6026   49.2677  128.1042 O   0  0  0  0  0  0  0  0  0  0  0  0
    8.3161   50.6402  130.9371 H   0  0  0  0  0  0  0  0  0  0  0  0
    9.1490   48.7687  130.4706 C   0  0  0  0  0  0  0  0  0  0  0  0
    8.9403   47.0351  132.3086 N   0  0  0  0  0  0  0  0  0  0  0  0
    8.4785   47.6248  131.1245 C   0  0  0  0  0  0  0  0  0  0  0  0
    7.4488   47.1703  130.5853 O   0  0  0  0  0  0  0  0  0  0  0  0
    9.7917   47.4011  132.7664 H   0  0  0  0  0  0  0  0  0  0  0  0
    8.2635   45.9184  132.9256 C   0  0  0  0  0  0  0  0  0  0  0  0
   10.4260   44.6915  132.2493 N   0  0  0  0  0  0  0  0  0  0  0  0
    9.0844   44.7121  132.6877 C   0  0  0  0  0  0  0  0  0  0  0  0
    8.5373   43.5735  132.8921 O   0  0  0  0  0  0  0  0  0  0  0  0
   11.0131   45.5293  132.0537 H   0  0  0  0  0  0  0  0  0  0  0  0
   11.1201   43.4176  132.0420 C   0  0  0  0  0  0  0  0  0  0  0  0
   12.1137   43.1915  133.1044 C   0  0  0  0  0  0  0  0  0  0  0  0
   11.7097   43.3605  134.4239 O   0  0  0  0  0  0  0  0  0  0  0  0
   13.2961   42.8592  132.9174 O   0  0  0  0  0  0  0  0  0  0  0  0
   11.1062   42.6582  134.8566 H   0  0  0  0  0  0  0  0  0  0  0  0
   11.8709   43.4813  130.6936 C   0  0  0  0  0  0  0  0  0  0  0  0
   11.6745   44.7880  130.0354 C   0  0  0  0  0  0  0  0  0  0  0  0
   11.0562   44.7294  128.6820 C   0  0  0  0  0  0  0  0  0  0  0  0
   10.0409   43.7457  128.5382 N   0  0  0  0  0  0  0  0  0  0  0  0
   10.2239   42.9859  127.7979 H   0  0  0  0  0  0  0  0  0  0  0  0
    7.9656   44.7655  129.2364 N   0  0  0  0  0  0  0  0  0  0  0  0
    8.8190   43.6397  129.2440 C   0  0  0  0  0  0  0  0  0  0  0  0
    8.4523   42.5570  129.8764 N   0  0  0  0  0  0  0  0  0  0  0  0
    7.6792   45.2102  130.1232 H   0  0  0  0  0  0  0  0  0  0  0  0
    7.6303   45.1405  128.3337 H   0  0  0  0  0  0  0  0  0  0  0  0
    9.0932   41.7375  129.8721 H   0  0  0  0  0  0  0  0  0  0  0  0
    8.1702   46.1382  134.4325 C   0  0  0  0  0  0  0  0  0  0  0  0
    8.9315   47.2462  134.7476 O   0  0  0  0  0  0  0  0  0  0  0  0
    9.8791   47.0483  134.9755 H   0  0  0  0  0  0  0  0  0  0  0  0
   10.3024   49.2048  131.3628 C   0  0  0  0  0  0  0  0  0  0  0  0
   11.3135   49.7275  130.5327 O   0  0  0  0  0  0  0  0  0  0  0  0
   12.0586   49.0984  130.3969 H   0  0  0  0  0  0  0  0  0  0  0  0
    7.2191   52.0242  127.6009 N   0  0  0  0  0  0  0  0  0  0  0  0
    7.1785   53.4289  127.4234 C   0  0  0  0  0  0  0  0  0  0  0  0
    6.8154   54.1936  128.3418 O   0  0  0  0  0  0  0  0  0  0  0  0
    7.5404   51.4265  126.8189 H   0  0  0  0  0  0  0  0  0  0  0  0
    7.5741   54.0339  126.1128 C   0  0  0  0  0  0  0  0  0  0  0  0
    6.3998   54.3642  125.3703 N   0  0  0  0  0  0  0  0  0  0  0  0
    6.2708   54.3936  123.9636 C   0  0  0  0  0  0  0  0  0  0  0  0
    7.2617   54.0821  123.2598 O   0  0  0  0  0  0  0  0  0  0  0  0
    5.5390   54.5982  125.9318 H   0  0  0  0  0  0  0  0  0  0  0  0
    5.0238   54.7734  123.2876 C   0  0  0  0  0  0  0  0  0  0  0  0
    4.5053   56.0602  123.7672 N   0  0  0  0  0  0  0  0  0  0  0  0
    3.3287   56.1400  124.5103 C   0  0  0  0  0  0  0  0  0  0  0  0
    2.7007   55.0751  124.7941 O   0  0  0  0  0  0  0  0  0  0  0  0
    5.0812   56.8838  123.5126 H   0  0  0  0  0  0  0  0  0  0  0  0
    2.7873   57.4347  124.9819 C   0  0  0  0  0  0  0  0  0  0  0  0
    3.7117   58.1489  125.8269 N   0  0  0  0  0  0  0  0  0  0  0  0
    3.8223   57.9882  127.2161 C   0  0  0  0  0  0  0  0  0  0  0  0
    3.0975   57.1791  127.8394 O   0  0  0  0  0  0  0  0  0  0  0  0
    4.3455   58.8453  125.3314 H   0  0  0  0  0  0  0  0  0  0  0  0
    4.8210   58.7896  127.9989 C   0  0  0  0  0  0  0  0  0  0  0  0
    6.1721   58.1732  127.6640 C   0  0  0  0  0  0  0  0  0  0  0  0
    5.9483   56.9649  127.0281 O   0  0  0  0  0  0  0  0  0  0  0  0
    6.7593   56.6301  126.6068 H   0  0  0  0  0  0  0  0  0  0  0  0
    4.8429   60.2316  127.5697 C   0  0  0  0  0  0  0  0  0  0  0  0
    3.5219   60.6564  127.4538 O   0  0  0  0  0  0  0  0  0  0  0  0
    3.4075   61.6109  127.7551 H   0  0  0  0  0  0  0  0  0  0  0  0
    2.2100   58.2510  123.8667 C   0  0  0  0  0  0  0  0  0  0  0  0
    2.0247   59.5675  124.3134 O   0  0  0  0  0  0  0  0  0  0  0  0
    1.6771   59.4759  125.2494 H   0  0  0  0  0  0  0  0  0  0  0  0
    3.9765   53.6881  123.6223 C   0  0  0  0  0  0  0  0  0  0  0  0
    3.3310   53.2835  122.4738 O   0  0  0  0  0  0  0  0  0  0  0  0
    2.6971   53.9917  122.1371 H   0  0  0  0  0  0  0  0  0  0  0  0
    8.4827   55.1838  126.3610 C   0  0  0  0  0  0  0  0  0  0  0  0
    8.3887   56.0880  125.2866 O   0  0  0  0  0  0  0  0  0  0  0  0
    9.0596   55.8194  124.6279 H   0  0  0  0  0  0  0  0  0  0  0  0
    5.3340   51.1713  128.9191 C   0  0  0  0  0  0  0  0  0  0  0  0
    5.0153   49.8637  129.3087 O   0  0  0  0  0  0  0  0  0  0  0  0
    4.1102   49.6071  129.0428 H   0  0  0  0  0  0  0  0  0  0  0  0
 26 27  1  0  0  0
 27 28  2  0  0  0
 27 24  1  0  0  0
 24 23  1  0  0  0
 23 22  1  0  0  0
 22 21  1  0  0  0
 21 16  1  0  0  0
 16 12  1  0  0  0
 12 13  1  0  0  0
 13 14  2  0  0  0
 13 11  1  0  0  0
 11 32  1  0  0  0
 32 33  1  0  0  0
 11  7  1  0  0  0
  7  8  1  0  0  0
  8  9  2  0  0  0
  8  6  1  0  0  0
  6 35  1  0  0  0
 35 36  1  0  0  0
  6  2  1  0  0  0
  2  3  1  0  0  0
  3  4  2  0  0  0
  3  1  1  0  0  0
  1 73  1  0  0  0
 73 74  1  0  0  0
  1 38  1  0  0  0
 38 39  1  0  0  0
 39 40  2  0  0  0
 39 42  1  0  0  0
 42 70  1  0  0  0
 70 71  1  0  0  0
 42 43  1  0  0  0
 43 44  1  0  0  0
 44 45  2  0  0  0
 44 47  1  0  0  0
 47 67  1  0  0  0
 67 68  1  0  0  0
 47 48  1  0  0  0
 48 49  1  0  0  0
 49 50  2  0  0  0
 49 52  1  0  0  0
 52 64  1  0  0  0
 64 65  1  0  0  0
 52 53  1  0  0  0
 53 54  1  0  0  0
 54 55  2  0  0  0
 54 57  1  0  0  0
 57 61  1  0  0  0
 61 62  1  0  0  0
 57 58  1  0  0  0
 58 59  1  0  0  0
 16 17  1  0  0  0
 17 18  1  0  0  0
 17 19  2  0  0  0
 26 29  1  0  0  0
 26 30  1  0  0  0
 28 31  1  0  0  0
 24 25  1  0  0  0
 12 15  1  0  0  0
 33 34  1  0  0  0
  7 10  1  0  0  0
 36 37  1  0  0  0
  2  5  1  0  0  0
 74 75  1  0  0  0
 38 41  1  0  0  0
 71 72  1  0  0  0
 43 46  1  0  0  0
 68 69  1  0  0  0
 48 51  1  0  0  0
 65 66  1  0  0  0
 53 56  1  0  0  0
 62 63  1  0  0  0
 59 60  1  0  0  0
 18 20  1  0  0  0
M  END
> <minimizedAffinity>
-2.14694

> <CNNscore>
0.3018745482

> <CNNaffinity>
6.6323509216

> <CNN_VS>
2.0021378994

> <CNNaffinity_variance>
0.4397458136

$$$$
[H]N=C(N([H])[H])N([H])C([H])([H])C([H])([H])C([H])([H])[C@@]([H])(C(=O)O[H])N([H])C(=O)[C@]([H])(N([H])C(=O)[C@@]([H])(N([H])C(=O)[C@@]([H])(N([H])C(=O)[C@@]([H])(N([H])C(=O)[C@]([H])(N([H])C(=O)[C@@]([H])(N([H])C(=O)C([H])(C([H])([H])O[H])C([H])([H])O[H])C([H])([H])O[H])C([H])([H])O[H])C([H])([H])O[H])C([H])([H])O[H])C([H])([H])O[H])C([H])([H])O[H]


 75 74  0  0  0  0  0  0  0  0999 V2000
    7.0044   50.8168  128.9321 C   0  0  0  0  0  0  0  0  0  0  0  0
    7.2332   52.6671  127.2671 N   0  0  0  0  0  0  0  0  0  0  0  0
    6.9753   52.2502  128.5748 C   0  0  0  0  0  0  0  0  0  0  0  0
    6.7182   53.0973  129.4571 O   0  0  0  0  0  0  0  0  0  0  0  0
    7.4358   51.9184  126.5393 H   0  0  0  0  0  0  0  0  0  0  0  0
    7.2594   53.9973  126.7856 C   0  0  0  0  0  0  0  0  0  0  0  0
    4.9133   54.7521  126.1911 N   0  0  0  0  0  0  0  0  0  0  0  0
    6.2096   54.3756  125.8157 C   0  0  0  0  0  0  0  0  0  0  0  0
    6.5054   54.3555  124.6034 O   0  0  0  0  0  0  0  0  0  0  0  0
    4.6542   54.7735  127.1914 H   0  0  0  0  0  0  0  0  0  0  0  0
    3.9081   55.1178  125.2207 C   0  0  0  0  0  0  0  0  0  0  0  0
    3.5619   57.1690  126.7410 N   0  0  0  0  0  0  0  0  0  0  0  0
    3.5164   56.5178  125.4896 C   0  0  0  0  0  0  0  0  0  0  0  0
    3.0916   57.2139  124.5034 O   0  0  0  0  0  0  0  0  0  0  0  0
    3.8949   56.7465  127.6330 H   0  0  0  0  0  0  0  0  0  0  0  0
    3.1304   58.5637  126.8686 C   0  0  0  0  0  0  0  0  0  0  0  0
    4.2902   59.4694  126.8266 C   0  0  0  0  0  0  0  0  0  0  0  0
    5.4954   58.9664  126.3496 O   0  0  0  0  0  0  0  0  0  0  0  0
    4.2812   60.6585  127.1864 O   0  0  0  0  0  0  0  0  0  0  0  0
    5.6064   58.7986  125.3475 H   0  0  0  0  0  0  0  0  0  0  0  0
    2.4379   58.7402  128.2380 C   0  0  0  0  0  0  0  0  0  0  0  0
    1.1624   59.4707  128.1000 C   0  0  0  0  0  0  0  0  0  0  0  0
    0.1297   59.1412  129.1209 C   0  0  0  0  0  0  0  0  0  0  0  0
   -1.1969   59.4955  128.7551 N   0  0  0  0  0  0  0  0  0  0  0  0
   -1.3061   60.4272  128.2269 H   0  0  0  0  0  0  0  0  0  0  0  0
   -3.4450   59.4721  129.6381 N   0  0  0  0  0  0  0  0  0  0  0  0
   -2.3927   58.7793  128.9990 C   0  0  0  0  0  0  0  0  0  0  0  0
   -2.5610   57.5320  128.6491 N   0  0  0  0  0  0  0  0  0  0  0  0
   -3.8324   59.1262  130.5305 H   0  0  0  0  0  0  0  0  0  0  0  0
   -3.8239   60.3297  129.2036 H   0  0  0  0  0  0  0  0  0  0  0  0
   -1.7754   57.0369  128.1798 H   0  0  0  0  0  0  0  0  0  0  0  0
    4.4978   55.0526  123.8150 C   0  0  0  0  0  0  0  0  0  0  0  0
    3.7662   54.1330  123.0902 O   0  0  0  0  0  0  0  0  0  0  0  0
    4.1137   53.2019  123.1288 H   0  0  0  0  0  0  0  0  0  0  0  0
    8.6104   54.2587  126.1352 C   0  0  0  0  0  0  0  0  0  0  0  0
    8.7904   55.6542  126.0651 O   0  0  0  0  0  0  0  0  0  0  0  0
    8.6296   56.0146  125.1631 H   0  0  0  0  0  0  0  0  0  0  0  0
    8.0562   50.5780  129.9151 N   0  0  0  0  0  0  0  0  0  0  0  0
    8.2378   49.3325  130.5647 C   0  0  0  0  0  0  0  0  0  0  0  0
    7.5057   48.3519  130.3146 O   0  0  0  0  0  0  0  0  0  0  0  0
    8.6943   51.3616  130.1404 H   0  0  0  0  0  0  0  0  0  0  0  0
    9.3249   49.1641  131.5796 C   0  0  0  0  0  0  0  0  0  0  0  0
    9.1975   47.8852  132.2021 N   0  0  0  0  0  0  0  0  0  0  0  0
    9.9337   47.4081  133.3096 C   0  0  0  0  0  0  0  0  0  0  0  0
   10.7805   48.1649  133.8428 O   0  0  0  0  0  0  0  0  0  0  0  0
    8.4704   47.2368  131.7995 H   0  0  0  0  0  0  0  0  0  0  0  0
    9.7501   46.0615  133.8656 C   0  0  0  0  0  0  0  0  0  0  0  0
    9.8144   45.0230  132.8302 N   0  0  0  0  0  0  0  0  0  0  0  0
   10.3437   43.7612  133.0962 C   0  0  0  0  0  0  0  0  0  0  0  0
   10.7632   43.4978  134.2640 O   0  0  0  0  0  0  0  0  0  0  0  0
    9.4365   45.3046  131.9069 H   0  0  0  0  0  0  0  0  0  0  0  0
   10.4309   42.7135  132.0539 C   0  0  0  0  0  0  0  0  0  0  0  0
   10.1977   43.2285  130.7276 N   0  0  0  0  0  0  0  0  0  0  0  0
   11.0898   44.0388  130.0096 C   0  0  0  0  0  0  0  0  0  0  0  0
   12.1940   44.3806  130.4920 O   0  0  0  0  0  0  0  0  0  0  0  0
    9.2689   42.9576  130.2846 H   0  0  0  0  0  0  0  0  0  0  0  0
   10.7408   44.5222  128.6324 C   0  0  0  0  0  0  0  0  0  0  0  0
    9.7150   43.5251  128.1116 C   0  0  0  0  0  0  0  0  0  0  0  0
    8.4740   43.8867  128.6051 O   0  0  0  0  0  0  0  0  0  0  0  0
    7.7577   43.4183  128.1417 H   0  0  0  0  0  0  0  0  0  0  0  0
   10.1004   45.8834  128.6614 C   0  0  0  0  0  0  0  0  0  0  0  0
    9.7077   46.1359  129.9733 O   0  0  0  0  0  0  0  0  0  0  0  0
    9.8334   47.1040  130.2222 H   0  0  0  0  0  0  0  0  0  0  0  0
   11.6683   41.8800  132.1858 C   0  0  0  0  0  0  0  0  0  0  0  0
   12.7307   42.7013  132.5907 O   0  0  0  0  0  0  0  0  0  0  0  0
   12.6156   43.5488  132.0676 H   0  0  0  0  0  0  0  0  0  0  0  0
    8.3386   46.0170  134.4920 C   0  0  0  0  0  0  0  0  0  0  0  0
    8.0267   47.2413  135.0428 O   0  0  0  0  0  0  0  0  0  0  0  0
    8.5503   47.4107  135.8876 H   0  0  0  0  0  0  0  0  0  0  0  0
   10.6405   49.3974  130.9281 C   0  0  0  0  0  0  0  0  0  0  0  0
   10.5585   49.0245  129.5735 O   0  0  0  0  0  0  0  0  0  0  0  0
   10.8048   48.0796  129.5221 H   0  0  0  0  0  0  0  0  0  0  0  0
    5.6769   50.2743  129.4001 C   0  0  0  0  0  0  0  0  0  0  0  0
    5.4135   49.0219  128.8297 O   0  0  0  0  0  0  0  0  0  0  0  0
    4.4598   48.8072  128.8295 H   0  0  0  0  0  0  0  0  0  0  0  0
 26 27  1  0  0  0
 27 28  2  0  0  0
 27 24  1  0  0  0
 24 23  1  0  0  0
 23 22  1  0  0  0
 22 21  1  0  0  0
 21 16  1  0  0  0
 16 12  1  0  0  0
 12 13  1  0  0  0
 13 14  2  0  0  0
 13 11  1  0  0  0
 11 32  1  0  0  0
 32 33  1  0  0  0
 11  7  1  0  0  0
  7  8  1  0  0  0
  8  9  2  0  0  0
  8  6  1  0  0  0
  6 35  1  0  0  0
 35 36  1  0  0  0
  6  2  1  0  0  0
  2  3  1  0  0  0
  3  4  2  0  0  0
  3  1  1  0  0  0
  1 73  1  0  0  0
 73 74  1  0  0  0
  1 38  1  0  0  0
 38 39  1  0  0  0
 39 40  2  0  0  0
 39 42  1  0  0  0
 42 70  1  0  0  0
 70 71  1  0  0  0
 42 43  1  0  0  0
 43 44  1  0  0  0
 44 45  2  0  0  0
 44 47  1  0  0  0
 47 67  1  0  0  0
 67 68  1  0  0  0
 47 48  1  0  0  0
 48 49  1  0  0  0
 49 50  2  0  0  0
 49 52  1  0  0  0
 52 64  1  0  0  0
 64 65  1  0  0  0
 52 53  1  0  0  0
 53 54  1  0  0  0
 54 55  2  0  0  0
 54 57  1  0  0  0
 57 61  1  0  0  0
 61 62  1  0  0  0
 57 58  1  0  0  0
 58 59  1  0  0  0
 16 17  1  0  0  0
 17 18  1  0  0  0
 17 19  2  0  0  0
 26 29  1  0  0  0
 26 30  1  0  0  0
 28 31  1  0  0  0
 24 25  1  0  0  0
 12 15  1  0  0  0
 33 34  1  0  0  0
  7 10  1  0  0  0
 36 37  1  0  0  0
  2  5  1  0  0  0
 74 75  1  0  0  0
 38 41  1  0  0  0
 71 72  1  0  0  0
 43 46  1  0  0  0
 68 69  1  0  0  0
 48 51  1  0  0  0
 65 66  1  0  0  0
 53 56  1  0  0  0
 62 63  1  0  0  0
 59 60  1  0  0  0
 18 20  1  0  0  0
M  END
> <minimizedAffinity>
-4.19211

> <CNNscore>
0.2873128355

> <CNNaffinity>
5.9179697037

> <CNN_VS>
1.7003086805

> <CNNaffinity_variance>
0.4867561460

$$$$
[H]N=C(N([H])[H])N([H])C([H])([H])C([H])([H])C([H])([H])[C@@]([H])(C(=O)O[H])N([H])C(=O)[C@]([H])(N([H])C(=O)[C@@]([H])(N([H])C(=O)[C@@]([H])(N([H])C(=O)[C@@]([H])(N([H])C(=O)[C@]([H])(N([H])C(=O)[C@@]([H])(N([H])C(=O)C([H])(C([H])([H])O[H])C([H])([H])O[H])C([H])([H])O[H])C([H])([H])O[H])C([H])([H])O[H])C([H])([H])O[H])C([H])([H])O[H])C([H])([H])O[H]


 75 74  0  0  0  0  0  0  0  0999 V2000
    9.4424   48.1963  130.5863 C   0  0  0  0  0  0  0  0  0  0  0  0
    9.0695   46.3580  128.9341 N   0  0  0  0  0  0  0  0  0  0  0  0
    9.7127   46.8356  130.0780 C   0  0  0  0  0  0  0  0  0  0  0  0
   10.5265   46.1051  130.6831 O   0  0  0  0  0  0  0  0  0  0  0  0
    8.3929   47.0111  128.4371 H   0  0  0  0  0  0  0  0  0  0  0  0
    9.2131   45.0791  128.3460 C   0  0  0  0  0  0  0  0  0  0  0  0
    8.7061   43.9580  130.5626 N   0  0  0  0  0  0  0  0  0  0  0  0
    9.2343   43.9215  129.2655 C   0  0  0  0  0  0  0  0  0  0  0  0
    9.7510   42.8628  128.8534 O   0  0  0  0  0  0  0  0  0  0  0  0
    8.2750   44.8280  130.9171 H   0  0  0  0  0  0  0  0  0  0  0  0
    8.7401   42.8103  131.4387 C   0  0  0  0  0  0  0  0  0  0  0  0
    9.6306   44.4701  133.1968 N   0  0  0  0  0  0  0  0  0  0  0  0
    8.9254   43.3073  132.8186 C   0  0  0  0  0  0  0  0  0  0  0  0
    8.4047   42.6261  133.7685 O   0  0  0  0  0  0  0  0  0  0  0  0
   10.0968   45.1356  132.5451 H   0  0  0  0  0  0  0  0  0  0  0  0
    9.7471   44.8416  134.6096 C   0  0  0  0  0  0  0  0  0  0  0  0
    9.6326   46.3002  134.7716 C   0  0  0  0  0  0  0  0  0  0  0  0
    8.3716   46.8344  135.0110 O   0  0  0  0  0  0  0  0  0  0  0  0
   10.5798   47.1020  134.7109 O   0  0  0  0  0  0  0  0  0  0  0  0
    7.9421   46.7116  135.9303 H   0  0  0  0  0  0  0  0  0  0  0  0
   11.1423   44.4142  135.1163 C   0  0  0  0  0  0  0  0  0  0  0  0
   12.0247   44.0383  133.9940 C   0  0  0  0  0  0  0  0  0  0  0  0
   12.8729   45.1389  133.4586 C   0  0  0  0  0  0  0  0  0  0  0  0
   12.8471   45.2700  132.0439 N   0  0  0  0  0  0  0  0  0  0  0  0
   12.8367   46.2777  131.6653 H   0  0  0  0  0  0  0  0  0  0  0  0
   13.8985   44.2111  130.1446 N   0  0  0  0  0  0  0  0  0  0  0  0
   12.8317   44.2434  131.0701 C   0  0  0  0  0  0  0  0  0  0  0  0
   11.8950   43.3350  131.0062 N   0  0  0  0  0  0  0  0  0  0  0  0
   13.7127   44.2711  129.1306 H   0  0  0  0  0  0  0  0  0  0  0  0
   14.8680   44.1269  130.4922 H   0  0  0  0  0  0  0  0  0  0  0  0
   11.1166   43.3741  131.6955 H   0  0  0  0  0  0  0  0  0  0  0  0
    7.4063   42.0720  131.3762 C   0  0  0  0  0  0  0  0  0  0  0  0
    7.4582   41.1912  130.3143 O   0  0  0  0  0  0  0  0  0  0  0  0
    7.1347   41.5623  129.4502 H   0  0  0  0  0  0  0  0  0  0  0  0
   10.5002   45.0526  127.5340 C   0  0  0  0  0  0  0  0  0  0  0  0
   11.5672   44.8346  128.4277 O   0  0  0  0  0  0  0  0  0  0  0  0
   12.0708   45.6565  128.6282 H   0  0  0  0  0  0  0  0  0  0  0  0
    8.3233   48.7797  129.8536 N   0  0  0  0  0  0  0  0  0  0  0  0
    7.9290   50.1328  129.9951 C   0  0  0  0  0  0  0  0  0  0  0  0
    8.5383   50.9152  130.7545 O   0  0  0  0  0  0  0  0  0  0  0  0
    7.8003   48.1680  129.2021 H   0  0  0  0  0  0  0  0  0  0  0  0
    6.7567   50.6596  129.2280 C   0  0  0  0  0  0  0  0  0  0  0  0
    7.2214   51.5023  128.1729 N   0  0  0  0  0  0  0  0  0  0  0  0
    7.1652   52.9135  128.1326 C   0  0  0  0  0  0  0  0  0  0  0  0
    6.6848   53.5269  129.1160 O   0  0  0  0  0  0  0  0  0  0  0  0
    7.6619   51.0201  127.3455 H   0  0  0  0  0  0  0  0  0  0  0  0
    7.6466   53.6957  126.9868 C   0  0  0  0  0  0  0  0  0  0  0  0
    6.6539   54.6766  126.5316 N   0  0  0  0  0  0  0  0  0  0  0  0
    7.0331   55.9362  126.0704 C   0  0  0  0  0  0  0  0  0  0  0  0
    8.2648   56.2359  126.0261 O   0  0  0  0  0  0  0  0  0  0  0  0
    5.6698   54.3545  126.5795 H   0  0  0  0  0  0  0  0  0  0  0  0
    6.0385   56.9394  125.6275 C   0  0  0  0  0  0  0  0  0  0  0  0
    4.7675   56.3495  125.2881 N   0  0  0  0  0  0  0  0  0  0  0  0
    4.5810   55.3210  124.3525 C   0  0  0  0  0  0  0  0  0  0  0  0
    5.5457   54.8253  123.7263 O   0  0  0  0  0  0  0  0  0  0  0  0
    3.9238   56.7451  125.8017 H   0  0  0  0  0  0  0  0  0  0  0  0
    3.2076   54.7833  124.0746 C   0  0  0  0  0  0  0  0  0  0  0  0
    3.4313   53.5695  123.1834 C   0  0  0  0  0  0  0  0  0  0  0  0
    3.6405   54.0170  121.8910 O   0  0  0  0  0  0  0  0  0  0  0  0
    3.9945   53.3099  121.3236 H   0  0  0  0  0  0  0  0  0  0  0  0
    2.5206   54.3233  125.3317 C   0  0  0  0  0  0  0  0  0  0  0  0
    2.2455   52.9658  125.1884 O   0  0  0  0  0  0  0  0  0  0  0  0
    2.3568   52.4674  126.0568 H   0  0  0  0  0  0  0  0  0  0  0  0
    5.9499   58.1055  126.5633 C   0  0  0  0  0  0  0  0  0  0  0  0
    6.1642   59.2881  125.8404 O   0  0  0  0  0  0  0  0  0  0  0  0
    6.9058   59.0695  125.2021 H   0  0  0  0  0  0  0  0  0  0  0  0
    7.8937   52.7022  125.8298 C   0  0  0  0  0  0  0  0  0  0  0  0
    7.7904   53.3516  124.6186 O   0  0  0  0  0  0  0  0  0  0  0  0
    6.8327   53.5826  124.4036 H   0  0  0  0  0  0  0  0  0  0  0  0
    5.9189   49.5188  128.7737 C   0  0  0  0  0  0  0  0  0  0  0  0
    4.6002   49.7030  129.2298 O   0  0  0  0  0  0  0  0  0  0  0  0
    4.5398   49.2774  130.1080 H   0  0  0  0  0  0  0  0  0  0  0  0
    9.2212   48.2615  132.0770 C   0  0  0  0  0  0  0  0  0  0  0  0
   10.0659   49.2079  132.6721 O   0  0  0  0  0  0  0  0  0  0  0  0
   10.1972   49.0404  133.6263 H   0  0  0  0  0  0  0  0  0  0  0  0
 26 27  1  0  0  0
 27 28  2  0  0  0
 27 24  1  0  0  0
 24 23  1  0  0  0
 23 22  1  0  0  0
 22 21  1  0  0  0
 21 16  1  0  0  0
 16 12  1  0  0  0
 12 13  1  0  0  0
 13 14  2  0  0  0
 13 11  1  0  0  0
 11 32  1  0  0  0
 32 33  1  0  0  0
 11  7  1  0  0  0
  7  8  1  0  0  0
  8  9  2  0  0  0
  8  6  1  0  0  0
  6 35  1  0  0  0
 35 36  1  0  0  0
  6  2  1  0  0  0
  2  3  1  0  0  0
  3  4  2  0  0  0
  3  1  1  0  0  0
  1 73  1  0  0  0
 73 74  1  0  0  0
  1 38  1  0  0  0
 38 39  1  0  0  0
 39 40  2  0  0  0
 39 42  1  0  0  0
 42 70  1  0  0  0
 70 71  1  0  0  0
 42 43  1  0  0  0
 43 44  1  0  0  0
 44 45  2  0  0  0
 44 47  1  0  0  0
 47 67  1  0  0  0
 67 68  1  0  0  0
 47 48  1  0  0  0
 48 49  1  0  0  0
 49 50  2  0  0  0
 49 52  1  0  0  0
 52 64  1  0  0  0
 64 65  1  0  0  0
 52 53  1  0  0  0
 53 54  1  0  0  0
 54 55  2  0  0  0
 54 57  1  0  0  0
 57 61  1  0  0  0
 61 62  1  0  0  0
 57 58  1  0  0  0
 58 59  1  0  0  0
 16 17  1  0  0  0
 17 18  1  0  0  0
 17 19  2  0  0  0
 26 29  1  0  0  0
 26 30  1  0  0  0
 28 31  1  0  0  0
 24 25  1  0  0  0
 12 15  1  0  0  0
 33 34  1  0  0  0
  7 10  1  0  0  0
 36 37  1  0  0  0
  2  5  1  0  0  0
 74 75  1  0  0  0
 38 41  1  0  0  0
 71 72  1  0  0  0
 43 46  1  0  0  0
 68 69  1  0  0  0
 48 51  1  0  0  0
 65 66  1  0  0  0
 53 56  1  0  0  0
 62 63  1  0  0  0
 59 60  1  0  0  0
 18 20  1  0  0  0
M  END
> <minimizedAffinity>
-2.50673

> <CNNscore>
0.2723154128

> <CNNaffinity>
6.5916900635

> <CNN_VS>
1.7950187922

> <CNNaffinity_variance>
1.8722076416

$$$$
[H]N=C(N([H])[H])N([H])C([H])([H])C([H])([H])C([H])([H])[C@@]([H])(C(=O)O[H])N([H])C(=O)[C@]([H])(N([H])C(=O)[C@@]([H])(N([H])C(=O)[C@@]([H])(N([H])C(=O)[C@@]([H])(N([H])C(=O)[C@]([H])(N([H])C(=O)[C@@]([H])(N([H])C(=O)C([H])(C([H])([H])O[H])C([H])([H])O[H])C([H])([H])O[H])C([H])([H])O[H])C([H])([H])O[H])C([H])([H])O[H])C([H])([H])O[H])C([H])([H])O[H]


 75 74  0  0  0  0  0  0  0  0999 V2000
    7.0933   50.6557  129.0011 C   0  0  0  0  0  0  0  0  0  0  0  0
    7.2508   52.5608  127.3905 N   0  0  0  0  0  0  0  0  0  0  0  0
    6.9488   52.0882  128.6695 C   0  0  0  0  0  0  0  0  0  0  0  0
    6.5529   52.8844  129.5479 O   0  0  0  0  0  0  0  0  0  0  0  0
    7.5728   51.8534  126.6643 H   0  0  0  0  0  0  0  0  0  0  0  0
    7.1794   53.8991  126.9368 C   0  0  0  0  0  0  0  0  0  0  0  0
    6.0878   54.3096  124.6857 N   0  0  0  0  0  0  0  0  0  0  0  0
    6.0245   54.2529  126.0842 C   0  0  0  0  0  0  0  0  0  0  0  0
    4.9428   54.5112  126.6507 O   0  0  0  0  0  0  0  0  0  0  0  0
    6.9769   54.0979  124.2030 H   0  0  0  0  0  0  0  0  0  0  0  0
    4.9421   54.6575  123.8782 C   0  0  0  0  0  0  0  0  0  0  0  0
    5.2033   56.8798  125.1556 N   0  0  0  0  0  0  0  0  0  0  0  0
    4.5904   56.0607  124.1831 C   0  0  0  0  0  0  0  0  0  0  0  0
    3.6406   56.5928  123.5107 O   0  0  0  0  0  0  0  0  0  0  0  0
    5.9956   56.6009  125.7717 H   0  0  0  0  0  0  0  0  0  0  0  0
    4.7454   58.2564  125.3627 C   0  0  0  0  0  0  0  0  0  0  0  0
    5.3680   58.8327  126.5657 C   0  0  0  0  0  0  0  0  0  0  0  0
    5.0969   60.1621  126.8691 O   0  0  0  0  0  0  0  0  0  0  0  0
    6.1242   58.2230  127.3403 O   0  0  0  0  0  0  0  0  0  0  0  0
    4.1782   60.4139  127.2396 H   0  0  0  0  0  0  0  0  0  0  0  0
    3.2163   58.2378  125.5803 C   0  0  0  0  0  0  0  0  0  0  0  0
    2.5554   59.3110  124.8117 C   0  0  0  0  0  0  0  0  0  0  0  0
    2.2154   60.5326  125.5924 C   0  0  0  0  0  0  0  0  0  0  0  0
    1.1791   60.3537  126.5480 N   0  0  0  0  0  0  0  0  0  0  0  0
    0.1742   60.3831  126.1629 H   0  0  0  0  0  0  0  0  0  0  0  0
    0.1332   59.7774  128.6476 N   0  0  0  0  0  0  0  0  0  0  0  0
    1.3010   60.1437  127.9421 C   0  0  0  0  0  0  0  0  0  0  0  0
    2.4327   60.2592  128.5845 N   0  0  0  0  0  0  0  0  0  0  0  0
   -0.2077   60.3574  129.4309 H   0  0  0  0  0  0  0  0  0  0  0  0
   -0.3776   58.9225  128.3719 H   0  0  0  0  0  0  0  0  0  0  0  0
    3.2828   60.5302  128.0493 H   0  0  0  0  0  0  0  0  0  0  0  0
    5.3060   54.5710  122.3990 C   0  0  0  0  0  0  0  0  0  0  0  0
    6.5630   54.0078  122.3036 O   0  0  0  0  0  0  0  0  0  0  0  0
    7.3127   54.6612  122.3069 H   0  0  0  0  0  0  0  0  0  0  0  0
    8.4479   54.2240  126.1610 C   0  0  0  0  0  0  0  0  0  0  0  0
    8.6035   55.6242  126.1595 O   0  0  0  0  0  0  0  0  0  0  0  0
    8.3408   56.0362  125.3048 H   0  0  0  0  0  0  0  0  0  0  0  0
    8.0828   50.4956  130.0617 N   0  0  0  0  0  0  0  0  0  0  0  0
    8.3072   49.2666  130.7294 C   0  0  0  0  0  0  0  0  0  0  0  0
    7.6712   48.2343  130.4298 O   0  0  0  0  0  0  0  0  0  0  0  0
    8.6419   51.3245  130.3306 H   0  0  0  0  0  0  0  0  0  0  0  0
    9.3241   49.1794  131.8242 C   0  0  0  0  0  0  0  0  0  0  0  0
    9.1126   47.9816  132.5724 N   0  0  0  0  0  0  0  0  0  0  0  0
    9.8422   47.5529  133.7038 C   0  0  0  0  0  0  0  0  0  0  0  0
   10.7644   48.2834  134.1398 O   0  0  0  0  0  0  0  0  0  0  0  0
    8.3227   47.3610  132.2528 H   0  0  0  0  0  0  0  0  0  0  0  0
    9.5671   46.2862  134.3939 C   0  0  0  0  0  0  0  0  0  0  0  0
    9.7740   45.1250  133.5202 N   0  0  0  0  0  0  0  0  0  0  0  0
   11.0533   44.6863  133.1826 C   0  0  0  0  0  0  0  0  0  0  0  0
   12.0621   45.2929  133.6550 O   0  0  0  0  0  0  0  0  0  0  0  0
    8.9040   44.6696  133.1879 H   0  0  0  0  0  0  0  0  0  0  0  0
   11.2724   43.5283  132.2866 C   0  0  0  0  0  0  0  0  0  0  0  0
   10.6847   43.7150  130.9834 N   0  0  0  0  0  0  0  0  0  0  0  0
    9.3620   43.3950  130.6428 C   0  0  0  0  0  0  0  0  0  0  0  0
    8.5711   42.9082  131.4832 O   0  0  0  0  0  0  0  0  0  0  0  0
   11.3274   44.1282  130.2428 H   0  0  0  0  0  0  0  0  0  0  0  0
    8.8557   43.6293  129.2496 C   0  0  0  0  0  0  0  0  0  0  0  0
    8.3624   45.0695  129.2452 C   0  0  0  0  0  0  0  0  0  0  0  0
    8.8010   45.6783  130.4077 O   0  0  0  0  0  0  0  0  0  0  0  0
    8.6985   46.6451  130.3624 H   0  0  0  0  0  0  0  0  0  0  0  0
    9.9518   43.5048  128.2263 C   0  0  0  0  0  0  0  0  0  0  0  0
   10.5754   44.7456  128.1244 O   0  0  0  0  0  0  0  0  0  0  0  0
   11.5688   44.6552  127.9833 H   0  0  0  0  0  0  0  0  0  0  0  0
   12.7040   43.0888  132.2632 C   0  0  0  0  0  0  0  0  0  0  0  0
   13.1830   43.0233  133.5797 O   0  0  0  0  0  0  0  0  0  0  0  0
   12.7964   43.8284  134.0353 H   0  0  0  0  0  0  0  0  0  0  0  0
    8.0784   46.3075  134.8065 C   0  0  0  0  0  0  0  0  0  0  0  0
    7.4242   45.2181  134.2729 O   0  0  0  0  0  0  0  0  0  0  0  0
    7.2957   45.3152  133.2775 H   0  0  0  0  0  0  0  0  0  0  0  0
   10.6843   49.2999  131.2369 C   0  0  0  0  0  0  0  0  0  0  0  0
   10.5876   49.2580  129.8334 O   0  0  0  0  0  0  0  0  0  0  0  0
   10.6581   48.3188  129.5704 H   0  0  0  0  0  0  0  0  0  0  0  0
    5.7942   49.9727  129.3494 C   0  0  0  0  0  0  0  0  0  0  0  0
    5.6766   48.7433  128.6876 O   0  0  0  0  0  0  0  0  0  0  0  0
    4.7473   48.4489  128.6134 H   0  0  0  0  0  0  0  0  0  0  0  0
 26 27  1  0  0  0
 27 28  2  0  0  0
 27 24  1  0  0  0
 24 23  1  0  0  0
 23 22  1  0  0  0
 22 21  1  0  0  0
 21 16  1  0  0  0
 16 12  1  0  0  0
 12 13  1  0  0  0
 13 14  2  0  0  0
 13 11  1  0  0  0
 11 32  1  0  0  0
 32 33  1  0  0  0
 11  7  1  0  0  0
  7  8  1  0  0  0
  8  9  2  0  0  0
  8  6  1  0  0  0
  6 35  1  0  0  0
 35 36  1  0  0  0
  6  2  1  0  0  0
  2  3  1  0  0  0
  3  4  2  0  0  0
  3  1  1  0  0  0
  1 73  1  0  0  0
 73 74  1  0  0  0
  1 38  1  0  0  0
 38 39  1  0  0  0
 39 40  2  0  0  0
 39 42  1  0  0  0
 42 70  1  0  0  0
 70 71  1  0  0  0
 42 43  1  0  0  0
 43 44  1  0  0  0
 44 45  2  0  0  0
 44 47  1  0  0  0
 47 67  1  0  0  0
 67 68  1  0  0  0
 47 48  1  0  0  0
 48 49  1  0  0  0
 49 50  2  0  0  0
 49 52  1  0  0  0
 52 64  1  0  0  0
 64 65  1  0  0  0
 52 53  1  0  0  0
 53 54  1  0  0  0
 54 55  2  0  0  0
 54 57  1  0  0  0
 57 61  1  0  0  0
 61 62  1  0  0  0
 57 58  1  0  0  0
 58 59  1  0  0  0
 16 17  1  0  0  0
 17 18  1  0  0  0
 17 19  2  0  0  0
 26 29  1  0  0  0
 26 30  1  0  0  0
 28 31  1  0  0  0
 24 25  1  0  0  0
 12 15  1  0  0  0
 33 34  1  0  0  0
  7 10  1  0  0  0
 36 37  1  0  0  0
  2  5  1  0  0  0
 74 75  1  0  0  0
 38 41  1  0  0  0
 71 72  1  0  0  0
 43 46  1  0  0  0
 68 69  1  0  0  0
 48 51  1  0  0  0
 65 66  1  0  0  0
 53 56  1  0  0  0
 62 63  1  0  0  0
 59 60  1  0  0  0
 18 20  1  0  0  0
M  END
> <minimizedAffinity>
-3.01198

> <CNNscore>
0.2641736865

> <CNNaffinity>
6.3598437309

> <CNN_VS>
1.6801034212

> <CNNaffinity_variance>
0.5194521546

$$$$
[H]N=C(N([H])[H])N([H])C([H])([H])C([H])([H])C([H])([H])[C@@]([H])(C(=O)O[H])N([H])C(=O)[C@]([H])(N([H])C(=O)[C@@]([H])(N([H])C(=O)[C@@]([H])(N([H])C(=O)[C@@]([H])(N([H])C(=O)[C@]([H])(N([H])C(=O)[C@@]([H])(N([H])C(=O)C([H])(C([H])([H])O[H])C([H])([H])O[H])C([H])([H])O[H])C([H])([H])O[H])C([H])([H])O[H])C([H])([H])O[H])C([H])([H])O[H])C([H])([H])O[H]


 75 74  0  0  0  0  0  0  0  0999 V2000
   16.5454   38.4778  138.1254 C   0  0  0  0  0  0  0  0  0  0  0  0
   17.1072   40.7701  138.9487 N   0  0  0  0  0  0  0  0  0  0  0  0
   17.2645   39.7619  137.9952 C   0  0  0  0  0  0  0  0  0  0  0  0
   18.0208   39.9451  137.0171 O   0  0  0  0  0  0  0  0  0  0  0  0
   16.4659   40.5752  139.7745 H   0  0  0  0  0  0  0  0  0  0  0  0
   17.7120   42.0493  138.9450 C   0  0  0  0  0  0  0  0  0  0  0  0
   18.6502   42.4810  141.2604 N   0  0  0  0  0  0  0  0  0  0  0  0
   18.8305   42.2602  139.8886 C   0  0  0  0  0  0  0  0  0  0  0  0
   19.9902   42.2373  139.4280 O   0  0  0  0  0  0  0  0  0  0  0  0
   17.6955   42.5024  141.6558 H   0  0  0  0  0  0  0  0  0  0  0  0
   19.7627   42.6830  142.1589 C   0  0  0  0  0  0  0  0  0  0  0  0
   21.1808   44.7649  142.7009 N   0  0  0  0  0  0  0  0  0  0  0  0
   19.9934   44.1396  142.2634 C   0  0  0  0  0  0  0  0  0  0  0  0
   19.0325   44.9168  141.9317 O   0  0  0  0  0  0  0  0  0  0  0  0
   22.0532   44.2749  142.9905 H   0  0  0  0  0  0  0  0  0  0  0  0
   21.2698   46.2261  142.7672 C   0  0  0  0  0  0  0  0  0  0  0  0
   22.5659   46.6892  142.2451 C   0  0  0  0  0  0  0  0  0  0  0  0
   23.1838   47.7583  142.8840 O   0  0  0  0  0  0  0  0  0  0  0  0
   23.1595   46.1987  141.2701 O   0  0  0  0  0  0  0  0  0  0  0  0
   23.6184   47.6124  143.7975 H   0  0  0  0  0  0  0  0  0  0  0  0
   21.1710   46.6575  144.2471 C   0  0  0  0  0  0  0  0  0  0  0  0
   20.3353   47.8654  144.3956 C   0  0  0  0  0  0  0  0  0  0  0  0
   19.3915   48.1249  143.2734 C   0  0  0  0  0  0  0  0  0  0  0  0
   18.2505   47.2783  143.2530 N   0  0  0  0  0  0  0  0  0  0  0  0
   17.9398   46.9313  142.2824 H   0  0  0  0  0  0  0  0  0  0  0  0
   17.7159   45.5318  144.8335 N   0  0  0  0  0  0  0  0  0  0  0  0
   17.4701   46.8351  144.3470 C   0  0  0  0  0  0  0  0  0  0  0  0
   16.5603   47.5765  144.9208 N   0  0  0  0  0  0  0  0  0  0  0  0
   16.9576   44.8313  144.8577 H   0  0  0  0  0  0  0  0  0  0  0  0
   18.6630   45.2855  145.1653 H   0  0  0  0  0  0  0  0  0  0  0  0
   16.3921   48.5337  144.5493 H   0  0  0  0  0  0  0  0  0  0  0  0
   19.4085   42.1587  143.5472 C   0  0  0  0  0  0  0  0  0  0  0  0
   18.0577   41.8732  143.5610 O   0  0  0  0  0  0  0  0  0  0  0  0
   17.4764   42.6267  143.8496 H   0  0  0  0  0  0  0  0  0  0  0  0
   16.6487   43.0971  139.2415 C   0  0  0  0  0  0  0  0  0  0  0  0
   15.8764   42.6309  140.3235 O   0  0  0  0  0  0  0  0  0  0  0  0
   15.0051   42.2688  140.0422 H   0  0  0  0  0  0  0  0  0  0  0  0
   17.5007   37.3752  138.0878 N   0  0  0  0  0  0  0  0  0  0  0  0
   17.1165   36.0272  137.8831 C   0  0  0  0  0  0  0  0  0  0  0  0
   15.9223   35.7077  137.7049 O   0  0  0  0  0  0  0  0  0  0  0  0
   18.5032   37.5994  138.2170 H   0  0  0  0  0  0  0  0  0  0  0  0
   18.1482   34.9429  137.8779 C   0  0  0  0  0  0  0  0  0  0  0  0
   19.3309   35.4116  138.5266 N   0  0  0  0  0  0  0  0  0  0  0  0
   19.4810   35.7037  139.9007 C   0  0  0  0  0  0  0  0  0  0  0  0
   18.5033   35.5242  140.6664 O   0  0  0  0  0  0  0  0  0  0  0  0
   20.1814   35.5408  137.9173 H   0  0  0  0  0  0  0  0  0  0  0  0
   20.7351   36.2089  140.4736 C   0  0  0  0  0  0  0  0  0  0  0  0
   21.5938   36.8324  139.4595 N   0  0  0  0  0  0  0  0  0  0  0  0
   21.2473   38.0391  138.8539 C   0  0  0  0  0  0  0  0  0  0  0  0
   20.1745   38.6212  139.1992 O   0  0  0  0  0  0  0  0  0  0  0  0
   22.4618   36.3089  139.2424 H   0  0  0  0  0  0  0  0  0  0  0  0
   22.0968   38.6662  137.8161 C   0  0  0  0  0  0  0  0  0  0  0  0
   22.3887   37.7730  136.7227 N   0  0  0  0  0  0  0  0  0  0  0  0
   21.4277   37.0973  135.9559 C   0  0  0  0  0  0  0  0  0  0  0  0
   20.2026   37.2325  136.1781 O   0  0  0  0  0  0  0  0  0  0  0  0
   23.4207   37.6342  136.5037 H   0  0  0  0  0  0  0  0  0  0  0  0
   21.8466   36.1859  134.8396 C   0  0  0  0  0  0  0  0  0  0  0  0
   22.3205   34.9123  135.5259 C   0  0  0  0  0  0  0  0  0  0  0  0
   21.8544   34.9262  136.8285 O   0  0  0  0  0  0  0  0  0  0  0  0
   21.9446   34.0521  137.2470 H   0  0  0  0  0  0  0  0  0  0  0  0
   20.6929   35.8339  133.9402 C   0  0  0  0  0  0  0  0  0  0  0  0
   20.0997   34.6810  134.4483 O   0  0  0  0  0  0  0  0  0  0  0  0
   19.0979   34.6977  134.3431 H   0  0  0  0  0  0  0  0  0  0  0  0
   21.5866   40.0109  137.3981 C   0  0  0  0  0  0  0  0  0  0  0  0
   22.1456   40.9905  138.2317 O   0  0  0  0  0  0  0  0  0  0  0  0
   22.1305   40.5875  139.1496 H   0  0  0  0  0  0  0  0  0  0  0  0
   21.4931   34.9931  141.0515 C   0  0  0  0  0  0  0  0  0  0  0  0
   20.9231   33.8222  140.6002 O   0  0  0  0  0  0  0  0  0  0  0  0
   20.0308   33.6528  141.0380 H   0  0  0  0  0  0  0  0  0  0  0  0
   17.5675   33.7145  138.4808 C   0  0  0  0  0  0  0  0  0  0  0  0
   18.6099   32.8828  138.9308 O   0  0  0  0  0  0  0  0  0  0  0  0
   18.8466   32.2940  138.1868 H   0  0  0  0  0  0  0  0  0  0  0  0
   15.6530   38.3949  139.3388 C   0  0  0  0  0  0  0  0  0  0  0  0
   16.4066   38.3779  140.5199 O   0  0  0  0  0  0  0  0  0  0  0  0
   15.9130   37.9909  141.2698 H   0  0  0  0  0  0  0  0  0  0  0  0
 26 27  1  0  0  0
 27 28  2  0  0  0
 27 24  1  0  0  0
 24 23  1  0  0  0
 23 22  1  0  0  0
 22 21  1  0  0  0
 21 16  1  0  0  0
 16 12  1  0  0  0
 12 13  1  0  0  0
 13 14  2  0  0  0
 13 11  1  0  0  0
 11 32  1  0  0  0
 32 33  1  0  0  0
 11  7  1  0  0  0
  7  8  1  0  0  0
  8  9  2  0  0  0
  8  6  1  0  0  0
  6 35  1  0  0  0
 35 36  1  0  0  0
  6  2  1  0  0  0
  2  3  1  0  0  0
  3  4  2  0  0  0
  3  1  1  0  0  0
  1 73  1  0  0  0
 73 74  1  0  0  0
  1 38  1  0  0  0
 38 39  1  0  0  0
 39 40  2  0  0  0
 39 42  1  0  0  0
 42 70  1  0  0  0
 70 71  1  0  0  0
 42 43  1  0  0  0
 43 44  1  0  0  0
 44 45  2  0  0  0
 44 47  1  0  0  0
 47 67  1  0  0  0
 67 68  1  0  0  0
 47 48  1  0  0  0
 48 49  1  0  0  0
 49 50  2  0  0  0
 49 52  1  0  0  0
 52 64  1  0  0  0
 64 65  1  0  0  0
 52 53  1  0  0  0
 53 54  1  0  0  0
 54 55  2  0  0  0
 54 57  1  0  0  0
 57 61  1  0  0  0
 61 62  1  0  0  0
 57 58  1  0  0  0
 58 59  1  0  0  0
 16 17  1  0  0  0
 17 18  1  0  0  0
 17 19  2  0  0  0
 26 29  1  0  0  0
 26 30  1  0  0  0
 28 31  1  0  0  0
 24 25  1  0  0  0
 12 15  1  0  0  0
 33 34  1  0  0  0
  7 10  1  0  0  0
 36 37  1  0  0  0
  2  5  1  0  0  0
 74 75  1  0  0  0
 38 41  1  0  0  0
 71 72  1  0  0  0
 43 46  1  0  0  0
 68 69  1  0  0  0
 48 51  1  0  0  0
 65 66  1  0  0  0
 53 56  1  0  0  0
 62 63  1  0  0  0
 59 60  1  0  0  0
 18 20  1  0  0  0
M  END
> <minimizedAffinity>
-5.65361

> <CNNscore>
0.2572249770

> <CNNaffinity>
5.1087775230

> <CNN_VS>
1.3141051531

> <CNNaffinity_variance>
1.1059982777

$$$$
[H]N=C(N([H])[H])N([H])C([H])([H])C([H])([H])C([H])([H])[C@@]([H])(C(=O)O[H])N([H])C(=O)[C@]([H])(N([H])C(=O)[C@@]([H])(N([H])C(=O)[C@@]([H])(N([H])C(=O)[C@@]([H])(N([H])C(=O)[C@]([H])(N([H])C(=O)[C@@]([H])(N([H])C(=O)C([H])(C([H])([H])O[H])C([H])([H])O[H])C([H])([H])O[H])C([H])([H])O[H])C([H])([H])O[H])C([H])([H])O[H])C([H])([H])O[H])C([H])([H])O[H]


 75 74  0  0  0  0  0  0  0  0999 V2000
    6.9763   51.2794  129.1951 C   0  0  0  0  0  0  0  0  0  0  0  0
    8.8304   50.0223  130.3042 N   0  0  0  0  0  0  0  0  0  0  0  0
    7.8648   50.1034  129.2985 C   0  0  0  0  0  0  0  0  0  0  0  0
    7.7489   49.1724  128.4728 O   0  0  0  0  0  0  0  0  0  0  0  0
    8.8926   50.8268  130.9973 H   0  0  0  0  0  0  0  0  0  0  0  0
    9.7577   48.9743  130.5137 C   0  0  0  0  0  0  0  0  0  0  0  0
    9.3745   46.8457  129.1911 N   0  0  0  0  0  0  0  0  0  0  0  0
    9.2476   47.5943  130.3686 C   0  0  0  0  0  0  0  0  0  0  0  0
    8.6773   47.0802  131.3525 O   0  0  0  0  0  0  0  0  0  0  0  0
    9.8445   47.2585  128.3684 H   0  0  0  0  0  0  0  0  0  0  0  0
    8.8668   45.4983  129.0788 C   0  0  0  0  0  0  0  0  0  0  0  0
   10.3440   44.3910  130.8762 N   0  0  0  0  0  0  0  0  0  0  0  0
    9.9301   44.5806  129.5401 C   0  0  0  0  0  0  0  0  0  0  0  0
   10.5423   43.8901  128.6536 O   0  0  0  0  0  0  0  0  0  0  0  0
    9.9377   44.8648  131.7101 H   0  0  0  0  0  0  0  0  0  0  0  0
   11.4245   43.4530  131.1930 C   0  0  0  0  0  0  0  0  0  0  0  0
   10.9246   42.3543  132.0356 C   0  0  0  0  0  0  0  0  0  0  0  0
   11.6783   41.1881  132.1042 O   0  0  0  0  0  0  0  0  0  0  0  0
    9.8734   42.3832  132.6973 O   0  0  0  0  0  0  0  0  0  0  0  0
   12.5489   41.1853  132.6395 H   0  0  0  0  0  0  0  0  0  0  0  0
   12.5117   44.2074  131.9898 C   0  0  0  0  0  0  0  0  0  0  0  0
   12.2173   44.1951  133.4364 C   0  0  0  0  0  0  0  0  0  0  0  0
   11.9762   45.5324  134.0455 C   0  0  0  0  0  0  0  0  0  0  0  0
   10.8016   46.1874  133.5870 N   0  0  0  0  0  0  0  0  0  0  0  0
   10.9522   46.9742  132.8678 H   0  0  0  0  0  0  0  0  0  0  0  0
    8.8035   46.9254  134.7261 N   0  0  0  0  0  0  0  0  0  0  0  0
    9.4590   45.9375  133.9578 C   0  0  0  0  0  0  0  0  0  0  0  0
    8.8126   44.8566  133.6106 N   0  0  0  0  0  0  0  0  0  0  0  0
    8.4110   46.6920  135.6522 H   0  0  0  0  0  0  0  0  0  0  0  0
    8.7206   47.8851  134.3522 H   0  0  0  0  0  0  0  0  0  0  0  0
    9.3109   44.1394  133.0452 H   0  0  0  0  0  0  0  0  0  0  0  0
    7.6591   45.3223  129.9945 C   0  0  0  0  0  0  0  0  0  0  0  0
    7.8704   44.1953  130.7636 O   0  0  0  0  0  0  0  0  0  0  0  0
    7.5199   43.3518  130.3702 H   0  0  0  0  0  0  0  0  0  0  0  0
   10.3452   49.1092  131.9112 C   0  0  0  0  0  0  0  0  0  0  0  0
    9.2758   49.2840  132.8115 O   0  0  0  0  0  0  0  0  0  0  0  0
    9.1678   50.2197  133.0983 H   0  0  0  0  0  0  0  0  0  0  0  0
    7.1031   51.8742  127.8686 N   0  0  0  0  0  0  0  0  0  0  0  0
    7.1246   53.2733  127.6485 C   0  0  0  0  0  0  0  0  0  0  0  0
    7.0513   54.0851  128.5948 O   0  0  0  0  0  0  0  0  0  0  0  0
    7.1812   51.2353  127.0576 H   0  0  0  0  0  0  0  0  0  0  0  0
    7.2354   53.8150  126.2576 C   0  0  0  0  0  0  0  0  0  0  0  0
    6.0743   54.5903  125.9576 N   0  0  0  0  0  0  0  0  0  0  0  0
    5.6083   54.9505  124.6733 C   0  0  0  0  0  0  0  0  0  0  0  0
    6.2402   54.5480  123.6669 O   0  0  0  0  0  0  0  0  0  0  0  0
    5.5012   54.9160  126.7801 H   0  0  0  0  0  0  0  0  0  0  0  0
    4.4128   55.7772  124.4646 C   0  0  0  0  0  0  0  0  0  0  0  0
    4.3565   56.9116  125.3945 N   0  0  0  0  0  0  0  0  0  0  0  0
    5.4353   57.7807  125.5492 C   0  0  0  0  0  0  0  0  0  0  0  0
    6.4832   57.5983  124.8581 O   0  0  0  0  0  0  0  0  0  0  0  0
    3.4626   57.0078  125.9104 H   0  0  0  0  0  0  0  0  0  0  0  0
    5.3957   58.9160  126.4985 C   0  0  0  0  0  0  0  0  0  0  0  0
    4.3007   59.8178  126.2409 N   0  0  0  0  0  0  0  0  0  0  0  0
    2.9938   59.6570  126.7248 C   0  0  0  0  0  0  0  0  0  0  0  0
    2.6794   58.6809  127.4439 O   0  0  0  0  0  0  0  0  0  0  0  0
    4.5307   60.6606  125.6335 H   0  0  0  0  0  0  0  0  0  0  0  0
    1.9282   60.6594  126.3898 C   0  0  0  0  0  0  0  0  0  0  0  0
    1.6961   60.5041  124.8932 C   0  0  0  0  0  0  0  0  0  0  0  0
    2.0921   59.2303  124.5260 O   0  0  0  0  0  0  0  0  0  0  0  0
    1.7744   59.0032  123.6345 H   0  0  0  0  0  0  0  0  0  0  0  0
    0.6353   60.3617  127.0994 C   0  0  0  0  0  0  0  0  0  0  0  0
    0.8369   60.5954  128.4573 O   0  0  0  0  0  0  0  0  0  0  0  0
    0.0217   60.9955  128.8936 H   0  0  0  0  0  0  0  0  0  0  0  0
    5.5092   58.4710  127.9241 C   0  0  0  0  0  0  0  0  0  0  0  0
    5.2469   57.0951  127.9950 O   0  0  0  0  0  0  0  0  0  0  0  0
    4.4810   56.9456  127.3654 H   0  0  0  0  0  0  0  0  0  0  0  0
    3.1858   54.8797  124.7398 C   0  0  0  0  0  0  0  0  0  0  0  0
    3.2209   54.4154  126.0370 O   0  0  0  0  0  0  0  0  0  0  0  0
    3.9370   53.7164  126.1601 H   0  0  0  0  0  0  0  0  0  0  0  0
    8.5162   54.5575  126.1242 C   0  0  0  0  0  0  0  0  0  0  0  0
    8.9580   54.4820  124.7900 O   0  0  0  0  0  0  0  0  0  0  0  0
    9.5199   53.6849  124.7201 H   0  0  0  0  0  0  0  0  0  0  0  0
    5.5354   50.9913  129.5362 C   0  0  0  0  0  0  0  0  0  0  0  0
    5.2080   49.6571  129.2608 O   0  0  0  0  0  0  0  0  0  0  0  0
    4.2463   49.5276  129.1420 H   0  0  0  0  0  0  0  0  0  0  0  0
 26 27  1  0  0  0
 27 28  2  0  0  0
 27 24  1  0  0  0
 24 23  1  0  0  0
 23 22  1  0  0  0
 22 21  1  0  0  0
 21 16  1  0  0  0
 16 12  1  0  0  0
 12 13  1  0  0  0
 13 14  2  0  0  0
 13 11  1  0  0  0
 11 32  1  0  0  0
 32 33  1  0  0  0
 11  7  1  0  0  0
  7  8  1  0  0  0
  8  9  2  0  0  0
  8  6  1  0  0  0
  6 35  1  0  0  0
 35 36  1  0  0  0
  6  2  1  0  0  0
  2  3  1  0  0  0
  3  4  2  0  0  0
  3  1  1  0  0  0
  1 73  1  0  0  0
 73 74  1  0  0  0
  1 38  1  0  0  0
 38 39  1  0  0  0
 39 40  2  0  0  0
 39 42  1  0  0  0
 42 70  1  0  0  0
 70 71  1  0  0  0
 42 43  1  0  0  0
 43 44  1  0  0  0
 44 45  2  0  0  0
 44 47  1  0  0  0
 47 67  1  0  0  0
 67 68  1  0  0  0
 47 48  1  0  0  0
 48 49  1  0  0  0
 49 50  2  0  0  0
 49 52  1  0  0  0
 52 64  1  0  0  0
 64 65  1  0  0  0
 52 53  1  0  0  0
 53 54  1  0  0  0
 54 55  2  0  0  0
 54 57  1  0  0  0
 57 61  1  0  0  0
 61 62  1  0  0  0
 57 58  1  0  0  0
 58 59  1  0  0  0
 16 17  1  0  0  0
 17 18  1  0  0  0
 17 19  2  0  0  0
 26 29  1  0  0  0
 26 30  1  0  0  0
 28 31  1  0  0  0
 24 25  1  0  0  0
 12 15  1  0  0  0
 33 34  1  0  0  0
  7 10  1  0  0  0
 36 37  1  0  0  0
  2  5  1  0  0  0
 74 75  1  0  0  0
 38 41  1  0  0  0
 71 72  1  0  0  0
 43 46  1  0  0  0
 68 69  1  0  0  0
 48 51  1  0  0  0
 65 66  1  0  0  0
 53 56  1  0  0  0
 62 63  1  0  0  0
 59 60  1  0  0  0
 18 20  1  0  0  0
M  END
> <minimizedAffinity>
-5.34047

> <CNNscore>
0.2514276505

> <CNNaffinity>
6.1019649506

> <CNN_VS>
1.5342026949

> <CNNaffinity_variance>
0.4822959006

$$$$
[H]N=C(N([H])[H])N([H])C([H])([H])C([H])([H])C([H])([H])[C@@]([H])(C(=O)O[H])N([H])C(=O)[C@]([H])(N([H])C(=O)[C@@]([H])(N([H])C(=O)[C@@]([H])(N([H])C(=O)[C@@]([H])(N([H])C(=O)[C@]([H])(N([H])C(=O)[C@@]([H])(N([H])C(=O)C([H])(C([H])([H])O[H])C([H])([H])O[H])C([H])([H])O[H])C([H])([H])O[H])C([H])([H])O[H])C([H])([H])O[H])C([H])([H])O[H])C([H])([H])O[H]


 75 74  0  0  0  0  0  0  0  0999 V2000
    7.1731   50.4003  128.9521 C   0  0  0  0  0  0  0  0  0  0  0  0
    7.2429   52.4353  127.5022 N   0  0  0  0  0  0  0  0  0  0  0  0
    7.0089   51.8548  128.7506 C   0  0  0  0  0  0  0  0  0  0  0  0
    6.6578   52.5716  129.7124 O   0  0  0  0  0  0  0  0  0  0  0  0
    7.5279   51.7936  126.7031 H   0  0  0  0  0  0  0  0  0  0  0  0
    7.1454   53.8066  127.1674 C   0  0  0  0  0  0  0  0  0  0  0  0
    6.8597   54.1204  124.6680 N   0  0  0  0  0  0  0  0  0  0  0  0
    6.3455   54.1452  125.9710 C   0  0  0  0  0  0  0  0  0  0  0  0
    5.1521   54.4671  126.1433 O   0  0  0  0  0  0  0  0  0  0  0  0
    7.8463   53.8555  124.5103 H   0  0  0  0  0  0  0  0  0  0  0  0
    6.0537   54.4553  123.5174 C   0  0  0  0  0  0  0  0  0  0  0  0
    5.8014   56.7597  124.6423 N   0  0  0  0  0  0  0  0  0  0  0  0
    5.3310   55.7072  123.8277 C   0  0  0  0  0  0  0  0  0  0  0  0
    4.1674   55.8614  123.3181 O   0  0  0  0  0  0  0  0  0  0  0  0
    6.7288   56.7925  125.1154 H   0  0  0  0  0  0  0  0  0  0  0  0
    4.9721   57.9450  124.8766 C   0  0  0  0  0  0  0  0  0  0  0  0
    5.2582   58.5224  126.2002 C   0  0  0  0  0  0  0  0  0  0  0  0
    4.7814   59.7995  126.4731 O   0  0  0  0  0  0  0  0  0  0  0  0
    5.8976   57.9570  127.1029 O   0  0  0  0  0  0  0  0  0  0  0  0
    3.7829   59.9353  126.6440 H   0  0  0  0  0  0  0  0  0  0  0  0
    3.4878   57.5181  124.8540 C   0  0  0  0  0  0  0  0  0  0  0  0
    3.0067   57.1906  126.2107 C   0  0  0  0  0  0  0  0  0  0  0  0
    3.1076   55.7539  126.5893 C   0  0  0  0  0  0  0  0  0  0  0  0
    1.8836   55.0360  126.5154 N   0  0  0  0  0  0  0  0  0  0  0  0
    0.9871   55.6317  126.5356 H   0  0  0  0  0  0  0  0  0  0  0  0
    0.7228   53.0548  127.2648 N   0  0  0  0  0  0  0  0  0  0  0  0
    1.6942   53.6369  126.4203 C   0  0  0  0  0  0  0  0  0  0  0  0
    2.3600   52.8820  125.5874 N   0  0  0  0  0  0  0  0  0  0  0  0
    0.9869   52.3101  127.9296 H   0  0  0  0  0  0  0  0  0  0  0  0
   -0.2560   53.3819  127.2113 H   0  0  0  0  0  0  0  0  0  0  0  0
    3.0719   53.3273  124.9731 H   0  0  0  0  0  0  0  0  0  0  0  0
    6.9535   54.7140  122.3127 C   0  0  0  0  0  0  0  0  0  0  0  0
    7.7259   53.5876  122.1104 O   0  0  0  0  0  0  0  0  0  0  0  0
    8.5985   53.5907  122.5873 H   0  0  0  0  0  0  0  0  0  0  0  0
    8.5469   54.3641  126.9638 C   0  0  0  0  0  0  0  0  0  0  0  0
    8.4211   55.6358  126.3706 O   0  0  0  0  0  0  0  0  0  0  0  0
    8.6151   55.6272  125.4054 H   0  0  0  0  0  0  0  0  0  0  0  0
    8.3296   50.1515  129.8066 N   0  0  0  0  0  0  0  0  0  0  0  0
    8.4481   49.0061  130.6315 C   0  0  0  0  0  0  0  0  0  0  0  0
    7.5622   48.1261  130.6594 O   0  0  0  0  0  0  0  0  0  0  0  0
    9.0936   50.8502  129.8018 H   0  0  0  0  0  0  0  0  0  0  0  0
    9.6536   48.8253  131.5000 C   0  0  0  0  0  0  0  0  0  0  0  0
    9.4155   47.7640  132.4254 N   0  0  0  0  0  0  0  0  0  0  0  0
   10.0849   47.5458  133.6503 C   0  0  0  0  0  0  0  0  0  0  0  0
   10.9711   48.3592  134.0073 O   0  0  0  0  0  0  0  0  0  0  0  0
    8.6533   47.0815  132.1719 H   0  0  0  0  0  0  0  0  0  0  0  0
    9.7875   46.4057  134.5266 C   0  0  0  0  0  0  0  0  0  0  0  0
    9.8620   45.1257  133.8119 N   0  0  0  0  0  0  0  0  0  0  0  0
   11.0821   44.4963  133.5706 C   0  0  0  0  0  0  0  0  0  0  0  0
   12.1512   45.0323  133.9933 O   0  0  0  0  0  0  0  0  0  0  0  0
    8.9474   44.7398  133.5134 H   0  0  0  0  0  0  0  0  0  0  0  0
   11.1695   43.2151  132.8338 C   0  0  0  0  0  0  0  0  0  0  0  0
   10.1279   43.0691  131.8477 N   0  0  0  0  0  0  0  0  0  0  0  0
    9.7517   44.0533  130.9215 C   0  0  0  0  0  0  0  0  0  0  0  0
   10.3205   45.1686  130.8870 O   0  0  0  0  0  0  0  0  0  0  0  0
    9.6224   42.1328  131.8463 H   0  0  0  0  0  0  0  0  0  0  0  0
    8.6473   43.7931  129.9392 C   0  0  0  0  0  0  0  0  0  0  0  0
    7.7789   45.0429  129.9808 C   0  0  0  0  0  0  0  0  0  0  0  0
    8.1739   45.8761  128.9492 O   0  0  0  0  0  0  0  0  0  0  0  0
    7.5241   46.5844  128.7966 H   0  0  0  0  0  0  0  0  0  0  0  0
    9.1701   43.6304  128.5378 C   0  0  0  0  0  0  0  0  0  0  0  0
   10.5551   43.7652  128.5869 O   0  0  0  0  0  0  0  0  0  0  0  0
   11.0152   43.1419  127.9428 H   0  0  0  0  0  0  0  0  0  0  0  0
   12.5505   42.9462  132.3203 C   0  0  0  0  0  0  0  0  0  0  0  0
   12.9521   44.0169  131.5084 O   0  0  0  0  0  0  0  0  0  0  0  0
   12.1368   44.2578  130.9769 H   0  0  0  0  0  0  0  0  0  0  0  0
    8.3367   46.5833  135.0270 C   0  0  0  0  0  0  0  0  0  0  0  0
    8.0473   47.9229  135.1727 O   0  0  0  0  0  0  0  0  0  0  0  0
    8.5207   48.3187  135.9701 H   0  0  0  0  0  0  0  0  0  0  0  0
   10.8494   48.6277  130.6394 C   0  0  0  0  0  0  0  0  0  0  0  0
   11.1146   49.8174  129.9358 O   0  0  0  0  0  0  0  0  0  0  0  0
   10.6167   49.7693  129.0957 H   0  0  0  0  0  0  0  0  0  0  0  0
    5.9388   49.7107  129.4778 C   0  0  0  0  0  0  0  0  0  0  0  0
    5.6110   48.5957  128.6951 O   0  0  0  0  0  0  0  0  0  0  0  0
    4.6712   48.3420  128.7854 H   0  0  0  0  0  0  0  0  0  0  0  0
 26 27  1  0  0  0
 27 28  2  0  0  0
 27 24  1  0  0  0
 24 23  1  0  0  0
 23 22  1  0  0  0
 22 21  1  0  0  0
 21 16  1  0  0  0
 16 12  1  0  0  0
 12 13  1  0  0  0
 13 14  2  0  0  0
 13 11  1  0  0  0
 11 32  1  0  0  0
 32 33  1  0  0  0
 11  7  1  0  0  0
  7  8  1  0  0  0
  8  9  2  0  0  0
  8  6  1  0  0  0
  6 35  1  0  0  0
 35 36  1  0  0  0
  6  2  1  0  0  0
  2  3  1  0  0  0
  3  4  2  0  0  0
  3  1  1  0  0  0
  1 73  1  0  0  0
 73 74  1  0  0  0
  1 38  1  0  0  0
 38 39  1  0  0  0
 39 40  2  0  0  0
 39 42  1  0  0  0
 42 70  1  0  0  0
 70 71  1  0  0  0
 42 43  1  0  0  0
 43 44  1  0  0  0
 44 45  2  0  0  0
 44 47  1  0  0  0
 47 67  1  0  0  0
 67 68  1  0  0  0
 47 48  1  0  0  0
 48 49  1  0  0  0
 49 50  2  0  0  0
 49 52  1  0  0  0
 52 64  1  0  0  0
 64 65  1  0  0  0
 52 53  1  0  0  0
 53 54  1  0  0  0
 54 55  2  0  0  0
 54 57  1  0  0  0
 57 61  1  0  0  0
 61 62  1  0  0  0
 57 58  1  0  0  0
 58 59  1  0  0  0
 16 17  1  0  0  0
 17 18  1  0  0  0
 17 19  2  0  0  0
 26 29  1  0  0  0
 26 30  1  0  0  0
 28 31  1  0  0  0
 24 25  1  0  0  0
 12 15  1  0  0  0
 33 34  1  0  0  0
  7 10  1  0  0  0
 36 37  1  0  0  0
  2  5  1  0  0  0
 74 75  1  0  0  0
 38 41  1  0  0  0
 71 72  1  0  0  0
 43 46  1  0  0  0
 68 69  1  0  0  0
 48 51  1  0  0  0
 65 66  1  0  0  0
 53 56  1  0  0  0
 62 63  1  0  0  0
 59 60  1  0  0  0
 18 20  1  0  0  0
M  END
> <minimizedAffinity>
-3.20965

> <CNNscore>
0.2444007248

> <CNNaffinity>
6.4411516190

> <CNN_VS>
1.5742220879

> <CNNaffinity_variance>
0.9517866969

$$$$
[H]N=C(N([H])[H])N([H])C([H])([H])C([H])([H])C([H])([H])[C@@]([H])(C(=O)O[H])N([H])C(=O)[C@]([H])(N([H])C(=O)[C@@]([H])(N([H])C(=O)[C@@]([H])(N([H])C(=O)[C@@]([H])(N([H])C(=O)[C@]([H])(N([H])C(=O)[C@@]([H])(N([H])C(=O)C([H])(C([H])([H])O[H])C([H])([H])O[H])C([H])([H])O[H])C([H])([H])O[H])C([H])([H])O[H])C([H])([H])O[H])C([H])([H])O[H])C([H])([H])O[H]


 75 74  0  0  0  0  0  0  0  0999 V2000
   17.4639   39.4494  139.0777 C   0  0  0  0  0  0  0  0  0  0  0  0
   18.3793   40.7291  141.0201 N   0  0  0  0  0  0  0  0  0  0  0  0
   17.3136   40.0593  140.4151 C   0  0  0  0  0  0  0  0  0  0  0  0
   16.2180   39.9710  141.0100 O   0  0  0  0  0  0  0  0  0  0  0  0
   19.2931   40.7960  140.4798 H   0  0  0  0  0  0  0  0  0  0  0  0
   18.3882   41.3411  142.2958 C   0  0  0  0  0  0  0  0  0  0  0  0
   19.3312   43.2729  143.6397 N   0  0  0  0  0  0  0  0  0  0  0  0
   19.2947   42.4953  142.4748 C   0  0  0  0  0  0  0  0  0  0  0  0
   20.0627   42.7811  141.5335 O   0  0  0  0  0  0  0  0  0  0  0  0
   18.7010   43.0477  144.4273 H   0  0  0  0  0  0  0  0  0  0  0  0
   20.2288   44.3948  143.7867 C   0  0  0  0  0  0  0  0  0  0  0  0
   19.3210   46.6550  144.6269 N   0  0  0  0  0  0  0  0  0  0  0  0
   19.4246   45.6292  143.6630 C   0  0  0  0  0  0  0  0  0  0  0  0
   18.7524   45.7928  142.5865 O   0  0  0  0  0  0  0  0  0  0  0  0
   19.8144   46.6778  145.5440 H   0  0  0  0  0  0  0  0  0  0  0  0
   18.4739   47.8249  144.3784 C   0  0  0  0  0  0  0  0  0  0  0  0
   17.0531   47.4796  144.5487 C   0  0  0  0  0  0  0  0  0  0  0  0
   16.7427   46.2893  145.1965 O   0  0  0  0  0  0  0  0  0  0  0  0
   16.0982   48.1711  144.1568 O   0  0  0  0  0  0  0  0  0  0  0  0
   16.8668   46.2230  146.2088 H   0  0  0  0  0  0  0  0  0  0  0  0
   18.6816   48.2799  142.9170 C   0  0  0  0  0  0  0  0  0  0  0  0
   19.3451   49.5974  142.8582 C   0  0  0  0  0  0  0  0  0  0  0  0
   20.5035   49.7653  143.7786 C   0  0  0  0  0  0  0  0  0  0  0  0
   21.0525   51.0756  143.8047 N   0  0  0  0  0  0  0  0  0  0  0  0
   21.1782   51.5134  144.7801 H   0  0  0  0  0  0  0  0  0  0  0  0
   22.7269   51.6274  142.1536 N   0  0  0  0  0  0  0  0  0  0  0  0
   21.4531   51.8784  142.7104 C   0  0  0  0  0  0  0  0  0  0  0  0
   20.6983   52.8134  142.1977 N   0  0  0  0  0  0  0  0  0  0  0  0
   23.4369   52.3762  142.1142 H   0  0  0  0  0  0  0  0  0  0  0  0
   22.9421   50.6860  141.7858 H   0  0  0  0  0  0  0  0  0  0  0  0
   19.7633   52.9851  142.6205 H   0  0  0  0  0  0  0  0  0  0  0  0
   20.8571   44.3762  145.1769 C   0  0  0  0  0  0  0  0  0  0  0  0
   21.8868   45.2957  145.1896 O   0  0  0  0  0  0  0  0  0  0  0  0
   22.7754   44.9284  144.9352 H   0  0  0  0  0  0  0  0  0  0  0  0
   18.7528   40.2960  143.3404 C   0  0  0  0  0  0  0  0  0  0  0  0
   17.5839   39.5737  143.6513 O   0  0  0  0  0  0  0  0  0  0  0  0
   17.1834   39.8469  144.5083 H   0  0  0  0  0  0  0  0  0  0  0  0
   16.8307   38.1347  139.0648 N   0  0  0  0  0  0  0  0  0  0  0  0
   17.0718   37.1713  138.0547 C   0  0  0  0  0  0  0  0  0  0  0  0
   17.8643   37.3935  137.1153 O   0  0  0  0  0  0  0  0  0  0  0  0
   16.1773   37.9051  139.8344 H   0  0  0  0  0  0  0  0  0  0  0  0
   16.3705   35.8496  138.0922 C   0  0  0  0  0  0  0  0  0  0  0  0
   17.3279   34.8116  138.3055 N   0  0  0  0  0  0  0  0  0  0  0  0
   17.1868   33.4489  137.9601 C   0  0  0  0  0  0  0  0  0  0  0  0
   16.1353   33.0776  137.3850 O   0  0  0  0  0  0  0  0  0  0  0  0
   18.2372   35.0963  138.7563 H   0  0  0  0  0  0  0  0  0  0  0  0
   18.2204   32.4456  138.2451 C   0  0  0  0  0  0  0  0  0  0  0  0
   19.3780   33.0261  138.9363 N   0  0  0  0  0  0  0  0  0  0  0  0
   20.6424   33.0446  138.3498 C   0  0  0  0  0  0  0  0  0  0  0  0
   20.7933   32.5652  137.1852 O   0  0  0  0  0  0  0  0  0  0  0  0
   19.1744   33.4148  139.8755 H   0  0  0  0  0  0  0  0  0  0  0  0
   21.8199   33.6101  139.0465 C   0  0  0  0  0  0  0  0  0  0  0  0
   21.9354   35.0368  138.8741 N   0  0  0  0  0  0  0  0  0  0  0  0
   21.2210   35.7951  137.9346 C   0  0  0  0  0  0  0  0  0  0  0  0
   20.4005   35.2616  137.1531 O   0  0  0  0  0  0  0  0  0  0  0  0
   22.6234   35.5253  139.5223 H   0  0  0  0  0  0  0  0  0  0  0  0
   21.4237   37.2792  137.8402 C   0  0  0  0  0  0  0  0  0  0  0  0
   22.8604   37.5110  138.2873 C   0  0  0  0  0  0  0  0  0  0  0  0
   22.8353   37.9928  139.5841 O   0  0  0  0  0  0  0  0  0  0  0  0
   23.7182   37.9593  139.9922 H   0  0  0  0  0  0  0  0  0  0  0  0
   21.2856   37.7752  136.4264 C   0  0  0  0  0  0  0  0  0  0  0  0
   22.2713   38.7367  136.2194 O   0  0  0  0  0  0  0  0  0  0  0  0
   22.6487   38.6914  135.2864 H   0  0  0  0  0  0  0  0  0  0  0  0
   21.9172   33.1482  140.4679 C   0  0  0  0  0  0  0  0  0  0  0  0
   21.0795   33.9427  141.2643 O   0  0  0  0  0  0  0  0  0  0  0  0
   21.1974   34.8745  140.9132 H   0  0  0  0  0  0  0  0  0  0  0  0
   18.7084   31.8969  136.8858 C   0  0  0  0  0  0  0  0  0  0  0  0
   18.2445   32.6926  135.8605 O   0  0  0  0  0  0  0  0  0  0  0  0
   17.2545   32.5684  135.7152 H   0  0  0  0  0  0  0  0  0  0  0  0
   15.2885   35.9004  139.1102 C   0  0  0  0  0  0  0  0  0  0  0  0
   14.1899   36.6045  138.5829 O   0  0  0  0  0  0  0  0  0  0  0  0
   14.3198   37.5469  138.8087 H   0  0  0  0  0  0  0  0  0  0  0  0
   16.9629   40.3154  137.9488 C   0  0  0  0  0  0  0  0  0  0  0  0
   16.2019   41.3873  138.4339 O   0  0  0  0  0  0  0  0  0  0  0  0
   15.5986   41.7510  137.7561 H   0  0  0  0  0  0  0  0  0  0  0  0
 26 27  1  0  0  0
 27 28  2  0  0  0
 27 24  1  0  0  0
 24 23  1  0  0  0
 23 22  1  0  0  0
 22 21  1  0  0  0
 21 16  1  0  0  0
 16 12  1  0  0  0
 12 13  1  0  0  0
 13 14  2  0  0  0
 13 11  1  0  0  0
 11 32  1  0  0  0
 32 33  1  0  0  0
 11  7  1  0  0  0
  7  8  1  0  0  0
  8  9  2  0  0  0
  8  6  1  0  0  0
  6 35  1  0  0  0
 35 36  1  0  0  0
  6  2  1  0  0  0
  2  3  1  0  0  0
  3  4  2  0  0  0
  3  1  1  0  0  0
  1 73  1  0  0  0
 73 74  1  0  0  0
  1 38  1  0  0  0
 38 39  1  0  0  0
 39 40  2  0  0  0
 39 42  1  0  0  0
 42 70  1  0  0  0
 70 71  1  0  0  0
 42 43  1  0  0  0
 43 44  1  0  0  0
 44 45  2  0  0  0
 44 47  1  0  0  0
 47 67  1  0  0  0
 67 68  1  0  0  0
 47 48  1  0  0  0
 48 49  1  0  0  0
 49 50  2  0  0  0
 49 52  1  0  0  0
 52 64  1  0  0  0
 64 65  1  0  0  0
 52 53  1  0  0  0
 53 54  1  0  0  0
 54 55  2  0  0  0
 54 57  1  0  0  0
 57 61  1  0  0  0
 61 62  1  0  0  0
 57 58  1  0  0  0
 58 59  1  0  0  0
 16 17  1  0  0  0
 17 18  1  0  0  0
 17 19  2  0  0  0
 26 29  1  0  0  0
 26 30  1  0  0  0
 28 31  1  0  0  0
 24 25  1  0  0  0
 12 15  1  0  0  0
 33 34  1  0  0  0
  7 10  1  0  0  0
 36 37  1  0  0  0
  2  5  1  0  0  0
 74 75  1  0  0  0
 38 41  1  0  0  0
 71 72  1  0  0  0
 43 46  1  0  0  0
 68 69  1  0  0  0
 48 51  1  0  0  0
 65 66  1  0  0  0
 53 56  1  0  0  0
 62 63  1  0  0  0
 59 60  1  0  0  0
 18 20  1  0  0  0
M  END
> <minimizedAffinity>
-5.24408

> <CNNscore>
0.2443336248

> <CNNaffinity>
4.7521367073

> <CNN_VS>
1.1611068249

> <CNNaffinity_variance>
0.7476842403

$$$$
[H]c1nc(N([H])c2c([H])c([H])c(N3C([H])([H])C([H])([H])N(C([H])(C([H])([H])[H])C([H])([H])[H])C([H])([H])C3([H])[H])c([H])c2OC([H])([H])[H])nc(N([H])c2c([H])c([H])c([H])c([H])c2S(=O)(=O)C([H])(C([H])([H])[H])C([H])([H])[H])c1Cl


 40 43  0  0  0  0  0  0  0  0999 V2000
    8.5257   48.8073  130.7716 C   0  0  0  0  0  0  0  0  0  0  0  0
    9.1520   49.8321  131.3532 N   0  0  0  0  0  0  0  0  0  0  0  0
   10.0962   49.6828  132.2915 C   0  0  0  0  0  0  0  0  0  0  0  0
   10.4045   48.3885  132.6415 C   0  0  0  0  0  0  0  0  0  0  0  0
   11.6247   48.0602  133.8700 Cl  0  0  0  0  0  0  0  0  0  0  0  0
    9.7779   47.2960  132.0604 C   0  0  0  0  0  0  0  0  0  0  0  0
    8.8520   47.5221  131.1380 N   0  0  0  0  0  0  0  0  0  0  0  0
    7.5305   49.0265  129.7983 N   0  0  0  0  0  0  0  0  0  0  0  0
    6.8007   48.2152  129.6849 H   0  0  0  0  0  0  0  0  0  0  0  0
    6.6066   51.1865  129.4824 C   0  0  0  0  0  0  0  0  0  0  0  0
    6.3929   52.2984  128.7242 C   0  0  0  0  0  0  0  0  0  0  0  0
    6.9303   52.4755  127.4510 C   0  0  0  0  0  0  0  0  0  0  0  0
    7.7038   51.4462  126.9937 C   0  0  0  0  0  0  0  0  0  0  0  0
    7.9430   50.2820  127.7561 C   0  0  0  0  0  0  0  0  0  0  0  0
    7.4059   50.1464  128.9857 C   0  0  0  0  0  0  0  0  0  0  0  0
    6.6692   53.6609  126.7456 N   0  0  0  0  0  0  0  0  0  0  0  0
    7.7826   54.3986  126.1707 C   0  0  0  0  0  0  0  0  0  0  0  0
    7.2933   55.2449  125.0121 C   0  0  0  0  0  0  0  0  0  0  0  0
    6.1157   55.9534  125.2644 N   0  0  0  0  0  0  0  0  0  0  0  0
    5.2589   55.6155  126.3174 C   0  0  0  0  0  0  0  0  0  0  0  0
    5.3053   54.1282  126.6139 C   0  0  0  0  0  0  0  0  0  0  0  0
    5.4124   56.4126  124.1092 C   0  0  0  0  0  0  0  0  0  0  0  0
    5.7102   55.6000  122.8888 C   0  0  0  0  0  0  0  0  0  0  0  0
    3.9105   56.4801  124.2994 C   0  0  0  0  0  0  0  0  0  0  0  0
    4.6343   51.1959  130.8676 C   0  0  0  0  0  0  0  0  0  0  0  0
    6.0344   51.0684  130.7637 O   0  0  0  0  0  0  0  0  0  0  0  0
   10.1418   45.9879  132.4453 N   0  0  0  0  0  0  0  0  0  0  0  0
    9.7661   45.7049  133.4048 H   0  0  0  0  0  0  0  0  0  0  0  0
   10.8871   45.0140  131.7878 C   0  0  0  0  0  0  0  0  0  0  0  0
   11.6006   45.2020  130.6179 C   0  0  0  0  0  0  0  0  0  0  0  0
   12.3254   44.1956  129.9788 C   0  0  0  0  0  0  0  0  0  0  0  0
   12.3204   42.9570  130.5541 C   0  0  0  0  0  0  0  0  0  0  0  0
   11.6149   42.7524  131.7189 C   0  0  0  0  0  0  0  0  0  0  0  0
   10.8927   43.7246  132.3704 C   0  0  0  0  0  0  0  0  0  0  0  0
   10.0399   43.3314  133.8166 S   0  0  0  0  0  0  0  0  0  0  0  0
   10.8336   42.5656  134.8198 O   0  0  0  0  0  0  0  0  0  0  0  0
    8.7882   42.5132  133.5212 O   0  0  0  0  0  0  0  0  0  0  0  0
    9.5221   44.8370  134.6209 C   0  0  0  0  0  0  0  0  0  0  0  0
    8.0575   44.7624  134.9464 C   0  0  0  0  0  0  0  0  0  0  0  0
   10.2619   44.9951  135.9446 C   0  0  0  0  0  0  0  0  0  0  0  0
 25 26  1  0  0  0
 26 10  1  0  0  0
 10 11  2  0  0  0
 11 12  1  0  0  0
 12 13  2  0  0  0
 13 14  1  0  0  0
 14 15  2  0  0  0
 15  8  1  0  0  0
  8  1  1  0  0  0
  1  2  2  0  0  0
  2  3  1  0  0  0
  3  4  2  0  0  0
  4  5  1  0  0  0
  4  6  1  0  0  0
  6 27  1  0  0  0
 27 29  1  0  0  0
 29 30  2  0  0  0
 30 31  1  0  0  0
 31 32  2  0  0  0
 32 33  1  0  0  0
 33 34  2  0  0  0
 34 35  1  0  0  0
 35 36  2  0  0  0
 35 37  2  0  0  0
 35 38  1  0  0  0
 38 39  1  0  0  0
 38 40  1  0  0  0
  6  7  2  0  0  0
 12 16  1  0  0  0
 16 17  1  0  0  0
 17 18  1  0  0  0
 18 19  1  0  0  0
 19 20  1  0  0  0
 20 21  1  0  0  0
 19 22  1  0  0  0
 22 23  1  0  0  0
 22 24  1  0  0  0
 15 10  1  0  0  0
  7  1  1  0  0  0
 21 16  1  0  0  0
 34 29  1  0  0  0
  8  9  1  0  0  0
 27 28  1  0  0  0
M  END
> <minimizedAffinity>
15.79735

> <CNNscore>
0.2928933799

> <CNNaffinity>
7.3392853737

> <CNN_VS>
2.1496281624

> <CNNaffinity_variance>
0.4079380035

$$$$
[H]c1nc(N([H])c2c([H])c([H])c(N3C([H])([H])C([H])([H])N(C([H])(C([H])([H])[H])C([H])([H])[H])C([H])([H])C3([H])[H])c([H])c2OC([H])([H])[H])nc(N([H])c2c([H])c([H])c([H])c([H])c2S(=O)(=O)C([H])(C([H])([H])[H])C([H])([H])[H])c1Cl


 40 43  0  0  0  0  0  0  0  0999 V2000
    7.7898   48.3858  132.4329 C   0  0  0  0  0  0  0  0  0  0  0  0
    8.1279   48.2755  133.7191 N   0  0  0  0  0  0  0  0  0  0  0  0
    9.0854   47.4498  134.1616 C   0  0  0  0  0  0  0  0  0  0  0  0
    9.7271   46.6971  133.2054 C   0  0  0  0  0  0  0  0  0  0  0  0
   11.0003   45.5673  133.6619 Cl  0  0  0  0  0  0  0  0  0  0  0  0
    9.4066   46.7829  131.8588 C   0  0  0  0  0  0  0  0  0  0  0  0
    8.4465   47.6228  131.4954 N   0  0  0  0  0  0  0  0  0  0  0  0
    6.7644   49.2634  132.0278 N   0  0  0  0  0  0  0  0  0  0  0  0
    5.8803   49.2809  132.6772 H   0  0  0  0  0  0  0  0  0  0  0  0
    8.0234   50.5790  130.5102 C   0  0  0  0  0  0  0  0  0  0  0  0
    8.1107   51.4248  129.4454 C   0  0  0  0  0  0  0  0  0  0  0  0
    7.0090   51.8364  128.6983 C   0  0  0  0  0  0  0  0  0  0  0  0
    5.8057   51.3313  129.1028 C   0  0  0  0  0  0  0  0  0  0  0  0
    5.6839   50.4534  130.2020 C   0  0  0  0  0  0  0  0  0  0  0  0
    6.7736   50.0765  130.9014 C   0  0  0  0  0  0  0  0  0  0  0  0
    7.1934   52.6999  127.6069 N   0  0  0  0  0  0  0  0  0  0  0  0
    6.6901   54.0613  127.6925 C   0  0  0  0  0  0  0  0  0  0  0  0
    7.4665   54.9556  126.7462 C   0  0  0  0  0  0  0  0  0  0  0  0
    7.6621   54.4226  125.4695 N   0  0  0  0  0  0  0  0  0  0  0  0
    7.5152   53.0565  125.2065 C   0  0  0  0  0  0  0  0  0  0  0  0
    7.8682   52.2175  126.4203 C   0  0  0  0  0  0  0  0  0  0  0  0
    8.7108   55.0199  124.7056 C   0  0  0  0  0  0  0  0  0  0  0  0
    8.5775   54.7616  123.2380 C   0  0  0  0  0  0  0  0  0  0  0  0
    8.8523   56.5118  124.9306 C   0  0  0  0  0  0  0  0  0  0  0  0
   10.3044   49.8012  130.4797 C   0  0  0  0  0  0  0  0  0  0  0  0
    9.1763   50.2004  131.2248 O   0  0  0  0  0  0  0  0  0  0  0  0
   10.1058   45.9986  130.9165 N   0  0  0  0  0  0  0  0  0  0  0  0
    9.6598   45.9990  129.9455 H   0  0  0  0  0  0  0  0  0  0  0  0
   11.2697   45.2453  131.0359 C   0  0  0  0  0  0  0  0  0  0  0  0
   12.5266   45.7483  131.3197 C   0  0  0  0  0  0  0  0  0  0  0  0
   13.6750   44.9620  131.4169 C   0  0  0  0  0  0  0  0  0  0  0  0
   13.5340   43.6183  131.2175 C   0  0  0  0  0  0  0  0  0  0  0  0
   12.2898   43.1009  130.9337 C   0  0  0  0  0  0  0  0  0  0  0  0
   11.1416   43.8511  130.8321 C   0  0  0  0  0  0  0  0  0  0  0  0
    9.6464   43.0789  130.4559 S   0  0  0  0  0  0  0  0  0  0  0  0
    8.4633   43.6244  131.1809 O   0  0  0  0  0  0  0  0  0  0  0  0
    9.7000   41.5847  130.7528 O   0  0  0  0  0  0  0  0  0  0  0  0
    9.3080   43.2706  128.7150 C   0  0  0  0  0  0  0  0  0  0  0  0
    8.1365   44.1909  128.5226 C   0  0  0  0  0  0  0  0  0  0  0  0
   10.5014   43.9237  128.0268 C   0  0  0  0  0  0  0  0  0  0  0  0
 25 26  1  0  0  0
 26 10  1  0  0  0
 10 11  2  0  0  0
 11 12  1  0  0  0
 12 13  2  0  0  0
 13 14  1  0  0  0
 14 15  2  0  0  0
 15  8  1  0  0  0
  8  1  1  0  0  0
  1  2  2  0  0  0
  2  3  1  0  0  0
  3  4  2  0  0  0
  4  5  1  0  0  0
  4  6  1  0  0  0
  6 27  1  0  0  0
 27 29  1  0  0  0
 29 30  2  0  0  0
 30 31  1  0  0  0
 31 32  2  0  0  0
 32 33  1  0  0  0
 33 34  2  0  0  0
 34 35  1  0  0  0
 35 36  2  0  0  0
 35 37  2  0  0  0
 35 38  1  0  0  0
 38 39  1  0  0  0
 38 40  1  0  0  0
  6  7  2  0  0  0
 12 16  1  0  0  0
 16 17  1  0  0  0
 17 18  1  0  0  0
 18 19  1  0  0  0
 19 20  1  0  0  0
 20 21  1  0  0  0
 19 22  1  0  0  0
 22 23  1  0  0  0
 22 24  1  0  0  0
 15 10  1  0  0  0
  7  1  1  0  0  0
 21 16  1  0  0  0
 34 29  1  0  0  0
  8  9  1  0  0  0
 27 28  1  0  0  0
M  END
> <minimizedAffinity>
14.06826

> <CNNscore>
0.2666237950

> <CNNaffinity>
7.4732093811

> <CNN_VS>
1.9925354719

> <CNNaffinity_variance>
0.1678571403

$$$$
[H]c1nc(N([H])c2c([H])c([H])c(N3C([H])([H])C([H])([H])N(C([H])(C([H])([H])[H])C([H])([H])[H])C([H])([H])C3([H])[H])c([H])c2OC([H])([H])[H])nc(N([H])c2c([H])c([H])c([H])c([H])c2S(=O)(=O)C([H])(C([H])([H])[H])C([H])([H])[H])c1Cl


 40 43  0  0  0  0  0  0  0  0999 V2000
    8.5059   48.5718  131.1118 C   0  0  0  0  0  0  0  0  0  0  0  0
    9.1926   49.5829  131.6474 N   0  0  0  0  0  0  0  0  0  0  0  0
   10.0057   49.4448  132.7029 C   0  0  0  0  0  0  0  0  0  0  0  0
   10.1081   48.1774  133.2282 C   0  0  0  0  0  0  0  0  0  0  0  0
   11.1400   47.8676  134.6229 Cl  0  0  0  0  0  0  0  0  0  0  0  0
    9.4125   47.0997  132.7006 C   0  0  0  0  0  0  0  0  0  0  0  0
    8.6255   47.3134  131.6545 N   0  0  0  0  0  0  0  0  0  0  0  0
    7.6552   48.7802  130.0080 N   0  0  0  0  0  0  0  0  0  0  0  0
    7.0035   47.9349  129.7538 H   0  0  0  0  0  0  0  0  0  0  0  0
    6.7886   50.9695  129.7339 C   0  0  0  0  0  0  0  0  0  0  0  0
    6.6247   52.1102  129.0067 C   0  0  0  0  0  0  0  0  0  0  0  0
    7.2092   52.3171  127.7590 C   0  0  0  0  0  0  0  0  0  0  0  0
    7.9760   51.2863  127.2937 C   0  0  0  0  0  0  0  0  0  0  0  0
    8.1641   50.0927  128.0241 C   0  0  0  0  0  0  0  0  0  0  0  0
    7.5823   49.9287  129.2297 C   0  0  0  0  0  0  0  0  0  0  0  0
    6.9976   53.5305  127.0856 N   0  0  0  0  0  0  0  0  0  0  0  0
    8.1434   54.2490  126.5514 C   0  0  0  0  0  0  0  0  0  0  0  0
    7.7009   55.1444  125.4109 C   0  0  0  0  0  0  0  0  0  0  0  0
    6.5420   55.8823  125.6652 N   0  0  0  0  0  0  0  0  0  0  0  0
    5.6570   55.5409  126.6934 C   0  0  0  0  0  0  0  0  0  0  0  0
    5.6516   54.0448  126.9457 C   0  0  0  0  0  0  0  0  0  0  0  0
    5.8735   56.3977  124.5131 C   0  0  0  0  0  0  0  0  0  0  0  0
    6.1452   55.5965  123.2791 C   0  0  0  0  0  0  0  0  0  0  0  0
    4.3746   56.5330  124.6904 C   0  0  0  0  0  0  0  0  0  0  0  0
    4.7712   50.9829  131.0525 C   0  0  0  0  0  0  0  0  0  0  0  0
    6.1703   50.8221  130.9906 O   0  0  0  0  0  0  0  0  0  0  0  0
    9.5642   45.8167  133.2686 N   0  0  0  0  0  0  0  0  0  0  0  0
    8.6520   45.4046  133.6426 H   0  0  0  0  0  0  0  0  0  0  0  0
   10.6854   45.0047  133.4097 C   0  0  0  0  0  0  0  0  0  0  0  0
   11.4885   44.9321  134.5335 C   0  0  0  0  0  0  0  0  0  0  0  0
   12.6154   44.1154  134.6326 C   0  0  0  0  0  0  0  0  0  0  0  0
   12.9315   43.3483  133.5478 C   0  0  0  0  0  0  0  0  0  0  0  0
   12.1427   43.4086  132.4206 C   0  0  0  0  0  0  0  0  0  0  0  0
   11.0273   44.2033  132.2949 C   0  0  0  0  0  0  0  0  0  0  0  0
   10.1343   44.1961  130.8199 S   0  0  0  0  0  0  0  0  0  0  0  0
   10.5017   43.1039  129.8739 O   0  0  0  0  0  0  0  0  0  0  0  0
   10.2935   45.5107  130.0649 O   0  0  0  0  0  0  0  0  0  0  0  0
    8.4002   43.9905  131.1841 C   0  0  0  0  0  0  0  0  0  0  0  0
    7.5745   44.6655  130.1262 C   0  0  0  0  0  0  0  0  0  0  0  0
    8.0383   42.5099  131.1501 C   0  0  0  0  0  0  0  0  0  0  0  0
 25 26  1  0  0  0
 26 10  1  0  0  0
 10 11  2  0  0  0
 11 12  1  0  0  0
 12 13  2  0  0  0
 13 14  1  0  0  0
 14 15  2  0  0  0
 15  8  1  0  0  0
  8  1  1  0  0  0
  1  2  2  0  0  0
  2  3  1  0  0  0
  3  4  2  0  0  0
  4  5  1  0  0  0
  4  6  1  0  0  0
  6 27  1  0  0  0
 27 29  1  0  0  0
 29 30  2  0  0  0
 30 31  1  0  0  0
 31 32  2  0  0  0
 32 33  1  0  0  0
 33 34  2  0  0  0
 34 35  1  0  0  0
 35 36  2  0  0  0
 35 37  2  0  0  0
 35 38  1  0  0  0
 38 39  1  0  0  0
 38 40  1  0  0  0
  6  7  2  0  0  0
 12 16  1  0  0  0
 16 17  1  0  0  0
 17 18  1  0  0  0
 18 19  1  0  0  0
 19 20  1  0  0  0
 20 21  1  0  0  0
 19 22  1  0  0  0
 22 23  1  0  0  0
 22 24  1  0  0  0
 15 10  1  0  0  0
  7  1  1  0  0  0
 21 16  1  0  0  0
 34 29  1  0  0  0
  8  9  1  0  0  0
 27 28  1  0  0  0
M  END
> <minimizedAffinity>
9.74243

> <CNNscore>
0.2388990372

> <CNNaffinity>
7.3326125145

> <CNN_VS>
1.7517540455

> <CNNaffinity_variance>
0.1961072385

$$$$
[H]c1nc(N([H])c2c([H])c([H])c(N3C([H])([H])C([H])([H])N(C([H])(C([H])([H])[H])C([H])([H])[H])C([H])([H])C3([H])[H])c([H])c2OC([H])([H])[H])nc(N([H])c2c([H])c([H])c([H])c([H])c2S(=O)(=O)C([H])(C([H])([H])[H])C([H])([H])[H])c1Cl


 40 43  0  0  0  0  0  0  0  0999 V2000
    8.6429   47.2449  129.5236 C   0  0  0  0  0  0  0  0  0  0  0  0
    9.0729   46.7481  128.3621 N   0  0  0  0  0  0  0  0  0  0  0  0
   10.1232   45.9235  128.2564 C   0  0  0  0  0  0  0  0  0  0  0  0
   10.7600   45.5984  129.4317 C   0  0  0  0  0  0  0  0  0  0  0  0
   12.1601   44.5280  129.4244 Cl  0  0  0  0  0  0  0  0  0  0  0  0
   10.3442   46.0922  130.6593 C   0  0  0  0  0  0  0  0  0  0  0  0
    9.2960   46.9045  130.6855 N   0  0  0  0  0  0  0  0  0  0  0  0
    7.5388   48.1191  129.5715 N   0  0  0  0  0  0  0  0  0  0  0  0
    6.6920   47.7702  130.1757 H   0  0  0  0  0  0  0  0  0  0  0  0
    7.5089   50.4831  129.7437 C   0  0  0  0  0  0  0  0  0  0  0  0
    7.3613   51.7220  129.1957 C   0  0  0  0  0  0  0  0  0  0  0  0
    7.1301   51.9398  127.8391 C   0  0  0  0  0  0  0  0  0  0  0  0
    7.0583   50.8133  127.0692 C   0  0  0  0  0  0  0  0  0  0  0  0
    7.2070   49.5169  127.6084 C   0  0  0  0  0  0  0  0  0  0  0  0
    7.4305   49.3452  128.9273 C   0  0  0  0  0  0  0  0  0  0  0  0
    7.0045   53.2527  127.3581 N   0  0  0  0  0  0  0  0  0  0  0  0
    8.0488   54.2176  127.6624 C   0  0  0  0  0  0  0  0  0  0  0  0
    8.0473   55.3201  126.6220 C   0  0  0  0  0  0  0  0  0  0  0  0
    6.7820   55.8217  126.3063 N   0  0  0  0  0  0  0  0  0  0  0  0
    5.6102   55.1202  126.6091 C   0  0  0  0  0  0  0  0  0  0  0  0
    5.8394   53.6207  126.5814 C   0  0  0  0  0  0  0  0  0  0  0  0
    6.6917   56.5363  125.0729 C   0  0  0  0  0  0  0  0  0  0  0  0
    7.6903   56.0721  124.0602 C   0  0  0  0  0  0  0  0  0  0  0  0
    5.3101   56.5027  124.4511 C   0  0  0  0  0  0  0  0  0  0  0  0
    9.0780   50.1901  131.5495 C   0  0  0  0  0  0  0  0  0  0  0  0
    7.7414   50.3300  131.1242 O   0  0  0  0  0  0  0  0  0  0  0  0
   11.0242   45.7157  131.8374 N   0  0  0  0  0  0  0  0  0  0  0  0
   11.9732   45.2596  131.6555 H   0  0  0  0  0  0  0  0  0  0  0  0
   10.6756   45.8489  133.1779 C   0  0  0  0  0  0  0  0  0  0  0  0
   10.7580   47.0148  133.9174 C   0  0  0  0  0  0  0  0  0  0  0  0
   10.4127   47.1062  135.2662 C   0  0  0  0  0  0  0  0  0  0  0  0
    9.9693   45.9689  135.8787 C   0  0  0  0  0  0  0  0  0  0  0  0
    9.8815   44.7993  135.1571 C   0  0  0  0  0  0  0  0  0  0  0  0
   10.2143   44.6799  133.8280 C   0  0  0  0  0  0  0  0  0  0  0  0
   10.0719   43.1502  133.0451 S   0  0  0  0  0  0  0  0  0  0  0  0
   10.0348   41.9790  133.9669 O   0  0  0  0  0  0  0  0  0  0  0  0
   11.2200   42.9132  132.0708 O   0  0  0  0  0  0  0  0  0  0  0  0
    8.5538   43.1083  132.1094 C   0  0  0  0  0  0  0  0  0  0  0  0
    7.8669   44.4416  132.1940 C   0  0  0  0  0  0  0  0  0  0  0  0
    8.8626   42.8624  130.6367 C   0  0  0  0  0  0  0  0  0  0  0  0
 25 26  1  0  0  0
 26 10  1  0  0  0
 10 11  2  0  0  0
 11 12  1  0  0  0
 12 13  2  0  0  0
 13 14  1  0  0  0
 14 15  2  0  0  0
 15  8  1  0  0  0
  8  1  1  0  0  0
  1  2  2  0  0  0
  2  3  1  0  0  0
  3  4  2  0  0  0
  4  5  1  0  0  0
  4  6  1  0  0  0
  6 27  1  0  0  0
 27 29  1  0  0  0
 29 30  2  0  0  0
 30 31  1  0  0  0
 31 32  2  0  0  0
 32 33  1  0  0  0
 33 34  2  0  0  0
 34 35  1  0  0  0
 35 36  2  0  0  0
 35 37  2  0  0  0
 35 38  1  0  0  0
 38 39  1  0  0  0
 38 40  1  0  0  0
  6  7  2  0  0  0
 12 16  1  0  0  0
 16 17  1  0  0  0
 17 18  1  0  0  0
 18 19  1  0  0  0
 19 20  1  0  0  0
 20 21  1  0  0  0
 19 22  1  0  0  0
 22 23  1  0  0  0
 22 24  1  0  0  0
 15 10  1  0  0  0
  7  1  1  0  0  0
 21 16  1  0  0  0
 34 29  1  0  0  0
  8  9  1  0  0  0
 27 28  1  0  0  0
M  END
> <minimizedAffinity>
7.69676

> <CNNscore>
0.2309054434

> <CNNaffinity>
7.6687760353

> <CNN_VS>
1.7707620859

> <CNNaffinity_variance>
0.1270968169

$$$$
[H]c1nc(N([H])c2c([H])c([H])c(N3C([H])([H])C([H])([H])N(C([H])(C([H])([H])[H])C([H])([H])[H])C([H])([H])C3([H])[H])c([H])c2OC([H])([H])[H])nc(N([H])c2c([H])c([H])c([H])c([H])c2S(=O)(=O)C([H])(C([H])([H])[H])C([H])([H])[H])c1Cl


 40 43  0  0  0  0  0  0  0  0999 V2000
    8.0318   48.7850  131.4363 C   0  0  0  0  0  0  0  0  0  0  0  0
    8.9732   49.6317  131.8574 N   0  0  0  0  0  0  0  0  0  0  0  0
    9.9976   49.2660  132.6392 C   0  0  0  0  0  0  0  0  0  0  0  0
   10.0415   47.9393  133.0008 C   0  0  0  0  0  0  0  0  0  0  0  0
   11.3356   47.3357  134.0336 Cl  0  0  0  0  0  0  0  0  0  0  0  0
    9.0837   47.0271  132.5835 C   0  0  0  0  0  0  0  0  0  0  0  0
    8.0978   47.4629  131.8107 N   0  0  0  0  0  0  0  0  0  0  0  0
    6.9695   49.2306  130.6246 N   0  0  0  0  0  0  0  0  0  0  0  0
    6.0666   48.6078  130.6527 H   0  0  0  0  0  0  0  0  0  0  0  0
    7.2396   50.1294  128.4480 C   0  0  0  0  0  0  0  0  0  0  0  0
    7.3108   51.1843  127.5883 C   0  0  0  0  0  0  0  0  0  0  0  0
    7.1323   52.5092  127.9807 C   0  0  0  0  0  0  0  0  0  0  0  0
    6.8745   52.6964  129.3094 C   0  0  0  0  0  0  0  0  0  0  0  0
    6.7949   51.6235  130.2239 C   0  0  0  0  0  0  0  0  0  0  0  0
    6.9730   50.3535  129.8067 C   0  0  0  0  0  0  0  0  0  0  0  0
    7.2091   53.5334  127.0238 N   0  0  0  0  0  0  0  0  0  0  0  0
    8.4617   54.2539  126.8617 C   0  0  0  0  0  0  0  0  0  0  0  0
    8.5339   54.8500  125.4697 C   0  0  0  0  0  0  0  0  0  0  0  0
    7.3658   55.4906  125.0487 N   0  0  0  0  0  0  0  0  0  0  0  0
    6.1322   55.2644  125.6685 C   0  0  0  0  0  0  0  0  0  0  0  0
    6.0434   53.8572  126.2286 C   0  0  0  0  0  0  0  0  0  0  0  0
    7.2447   55.6893  123.6395 C   0  0  0  0  0  0  0  0  0  0  0  0
    8.4952   56.2300  123.0213 C   0  0  0  0  0  0  0  0  0  0  0  0
    6.8222   54.4450  122.8848 C   0  0  0  0  0  0  0  0  0  0  0  0
    6.4556   47.8532  128.3331 C   0  0  0  0  0  0  0  0  0  0  0  0
    7.4295   48.8121  127.9878 O   0  0  0  0  0  0  0  0  0  0  0  0
    9.1832   45.6737  132.9713 N   0  0  0  0  0  0  0  0  0  0  0  0
    8.3138   45.3084  133.4738 H   0  0  0  0  0  0  0  0  0  0  0  0
   10.2052   44.7450  132.8000 C   0  0  0  0  0  0  0  0  0  0  0  0
   11.3252   44.6257  133.6028 C   0  0  0  0  0  0  0  0  0  0  0  0
   12.3382   43.6901  133.3904 C   0  0  0  0  0  0  0  0  0  0  0  0
   12.2018   42.8494  132.3227 C   0  0  0  0  0  0  0  0  0  0  0  0
   11.0930   42.9548  131.5130 C   0  0  0  0  0  0  0  0  0  0  0  0
   10.0798   43.8663  131.6982 C   0  0  0  0  0  0  0  0  0  0  0  0
    8.7512   43.9028  130.5997 S   0  0  0  0  0  0  0  0  0  0  0  0
    7.5536   44.6405  131.0940 O   0  0  0  0  0  0  0  0  0  0  0  0
    8.2888   42.4963  130.2367 O   0  0  0  0  0  0  0  0  0  0  0  0
    9.2579   44.7094  129.0916 C   0  0  0  0  0  0  0  0  0  0  0  0
   10.2770   45.7694  129.3991 C   0  0  0  0  0  0  0  0  0  0  0  0
    9.9333   43.7006  128.1693 C   0  0  0  0  0  0  0  0  0  0  0  0
 25 26  1  0  0  0
 26 10  1  0  0  0
 10 11  2  0  0  0
 11 12  1  0  0  0
 12 13  2  0  0  0
 13 14  1  0  0  0
 14 15  2  0  0  0
 15  8  1  0  0  0
  8  1  1  0  0  0
  1  2  2  0  0  0
  2  3  1  0  0  0
  3  4  2  0  0  0
  4  5  1  0  0  0
  4  6  1  0  0  0
  6 27  1  0  0  0
 27 29  1  0  0  0
 29 30  2  0  0  0
 30 31  1  0  0  0
 31 32  2  0  0  0
 32 33  1  0  0  0
 33 34  2  0  0  0
 34 35  1  0  0  0
 35 36  2  0  0  0
 35 37  2  0  0  0
 35 38  1  0  0  0
 38 39  1  0  0  0
 38 40  1  0  0  0
  6  7  2  0  0  0
 12 16  1  0  0  0
 16 17  1  0  0  0
 17 18  1  0  0  0
 18 19  1  0  0  0
 19 20  1  0  0  0
 20 21  1  0  0  0
 19 22  1  0  0  0
 22 23  1  0  0  0
 22 24  1  0  0  0
 15 10  1  0  0  0
  7  1  1  0  0  0
 21 16  1  0  0  0
 34 29  1  0  0  0
  8  9  1  0  0  0
 27 28  1  0  0  0
M  END
> <minimizedAffinity>
0.85405

> <CNNscore>
0.2291869670

> <CNNaffinity>
7.5848875046

> <CNN_VS>
1.7383573055

> <CNNaffinity_variance>
0.4002949595

$$$$
[H]c1nc(N([H])c2c([H])c([H])c(N3C([H])([H])C([H])([H])N(C([H])(C([H])([H])[H])C([H])([H])[H])C([H])([H])C3([H])[H])c([H])c2OC([H])([H])[H])nc(N([H])c2c([H])c([H])c([H])c([H])c2S(=O)(=O)C([H])(C([H])([H])[H])C([H])([H])[H])c1Cl


 40 43  0  0  0  0  0  0  0  0999 V2000
    8.3894   48.5557  131.5560 C   0  0  0  0  0  0  0  0  0  0  0  0
    8.9169   49.1941  132.6024 N   0  0  0  0  0  0  0  0  0  0  0  0
    9.9987   48.7599  133.2623 C   0  0  0  0  0  0  0  0  0  0  0  0
   10.5624   47.5925  132.8018 C   0  0  0  0  0  0  0  0  0  0  0  0
   11.9849   46.9138  133.5903 Cl  0  0  0  0  0  0  0  0  0  0  0  0
   10.0459   46.8995  131.7171 C   0  0  0  0  0  0  0  0  0  0  0  0
    8.9716   47.3904  131.1137 N   0  0  0  0  0  0  0  0  0  0  0  0
    7.2414   49.0544  130.9087 N   0  0  0  0  0  0  0  0  0  0  0  0
    6.3157   48.4989  131.1048 H   0  0  0  0  0  0  0  0  0  0  0  0
    7.3142   49.8809  128.6882 C   0  0  0  0  0  0  0  0  0  0  0  0
    7.3213   50.9075  127.7922 C   0  0  0  0  0  0  0  0  0  0  0  0
    7.2078   52.2473  128.1573 C   0  0  0  0  0  0  0  0  0  0  0  0
    7.0852   52.4802  129.4981 C   0  0  0  0  0  0  0  0  0  0  0  0
    7.0747   51.4375  130.4500 C   0  0  0  0  0  0  0  0  0  0  0  0
    7.1865   50.1517  130.0585 C   0  0  0  0  0  0  0  0  0  0  0  0
    7.2103   53.2402  127.1650 N   0  0  0  0  0  0  0  0  0  0  0  0
    8.1315   53.1166  126.0467 C   0  0  0  0  0  0  0  0  0  0  0  0
    7.5999   53.8903  124.8564 C   0  0  0  0  0  0  0  0  0  0  0  0
    7.1241   55.1690  125.1579 N   0  0  0  0  0  0  0  0  0  0  0  0
    6.7973   55.5491  126.4639 C   0  0  0  0  0  0  0  0  0  0  0  0
    6.3079   54.3666  127.2789 C   0  0  0  0  0  0  0  0  0  0  0  0
    6.2573   55.7505  124.1829 C   0  0  0  0  0  0  0  0  0  0  0  0
    5.7066   54.7434  123.2234 C   0  0  0  0  0  0  0  0  0  0  0  0
    5.1088   56.5363  124.7829 C   0  0  0  0  0  0  0  0  0  0  0  0
    6.3429   47.6840  128.4910 C   0  0  0  0  0  0  0  0  0  0  0  0
    7.4326   48.5464  128.2544 O   0  0  0  0  0  0  0  0  0  0  0  0
   10.6711   45.7136  131.2758 N   0  0  0  0  0  0  0  0  0  0  0  0
   11.4362   45.3635  131.9346 H   0  0  0  0  0  0  0  0  0  0  0  0
   10.4523   44.9282  130.1481 C   0  0  0  0  0  0  0  0  0  0  0  0
   10.9465   45.1850  128.8821 C   0  0  0  0  0  0  0  0  0  0  0  0
   10.6928   44.3808  127.7705 C   0  0  0  0  0  0  0  0  0  0  0  0
    9.9085   43.2788  127.9593 C   0  0  0  0  0  0  0  0  0  0  0  0
    9.4080   43.0086  129.2134 C   0  0  0  0  0  0  0  0  0  0  0  0
    9.6415   43.7824  130.3261 C   0  0  0  0  0  0  0  0  0  0  0  0
    8.9409   43.3392  131.8381 S   0  0  0  0  0  0  0  0  0  0  0  0
    7.8218   42.3588  131.7432 O   0  0  0  0  0  0  0  0  0  0  0  0
    8.4041   44.5564  132.5823 O   0  0  0  0  0  0  0  0  0  0  0  0
   10.1896   42.5868  132.8659 C   0  0  0  0  0  0  0  0  0  0  0  0
   11.3742   42.2002  132.0270 C   0  0  0  0  0  0  0  0  0  0  0  0
   10.6868   43.5957  133.8952 C   0  0  0  0  0  0  0  0  0  0  0  0
 25 26  1  0  0  0
 26 10  1  0  0  0
 10 11  2  0  0  0
 11 12  1  0  0  0
 12 13  2  0  0  0
 13 14  1  0  0  0
 14 15  2  0  0  0
 15  8  1  0  0  0
  8  1  1  0  0  0
  1  2  2  0  0  0
  2  3  1  0  0  0
  3  4  2  0  0  0
  4  5  1  0  0  0
  4  6  1  0  0  0
  6 27  1  0  0  0
 27 29  1  0  0  0
 29 30  2  0  0  0
 30 31  1  0  0  0
 31 32  2  0  0  0
 32 33  1  0  0  0
 33 34  2  0  0  0
 34 35  1  0  0  0
 35 36  2  0  0  0
 35 37  2  0  0  0
 35 38  1  0  0  0
 38 39  1  0  0  0
 38 40  1  0  0  0
  6  7  2  0  0  0
 12 16  1  0  0  0
 16 17  1  0  0  0
 17 18  1  0  0  0
 18 19  1  0  0  0
 19 20  1  0  0  0
 20 21  1  0  0  0
 19 22  1  0  0  0
 22 23  1  0  0  0
 22 24  1  0  0  0
 15 10  1  0  0  0
  7  1  1  0  0  0
 21 16  1  0  0  0
 34 29  1  0  0  0
  8  9  1  0  0  0
 27 28  1  0  0  0
M  END
> <minimizedAffinity>
1.11206

> <CNNscore>
0.2243624926

> <CNNaffinity>
7.4438018799

> <CNN_VS>
1.6701099873

> <CNNaffinity_variance>
0.3675864339

$$$$
[H]c1nc(N([H])c2c([H])c([H])c(N3C([H])([H])C([H])([H])N(C([H])(C([H])([H])[H])C([H])([H])[H])C([H])([H])C3([H])[H])c([H])c2OC([H])([H])[H])nc(N([H])c2c([H])c([H])c([H])c([H])c2S(=O)(=O)C([H])(C([H])([H])[H])C([H])([H])[H])c1Cl


 40 43  0  0  0  0  0  0  0  0999 V2000
   11.4429   44.5166  133.0530 C   0  0  0  0  0  0  0  0  0  0  0  0
   12.1358   43.7398  132.2181 N   0  0  0  0  0  0  0  0  0  0  0  0
   12.0838   43.8596  130.8849 C   0  0  0  0  0  0  0  0  0  0  0  0
   11.2616   44.8485  130.3962 C   0  0  0  0  0  0  0  0  0  0  0  0
   11.1011   45.1015  128.6595 Cl  0  0  0  0  0  0  0  0  0  0  0  0
   10.5259   45.6776  131.2298 C   0  0  0  0  0  0  0  0  0  0  0  0
   10.6279   45.4991  132.5401 N   0  0  0  0  0  0  0  0  0  0  0  0
   11.5281   44.3352  134.4478 N   0  0  0  0  0  0  0  0  0  0  0  0
   10.6596   44.6863  135.0190 H   0  0  0  0  0  0  0  0  0  0  0  0
   12.3085   43.2865  136.4252 C   0  0  0  0  0  0  0  0  0  0  0  0
   13.3096   42.7681  137.1908 C   0  0  0  0  0  0  0  0  0  0  0  0
   14.6361   42.6905  136.7720 C   0  0  0  0  0  0  0  0  0  0  0  0
   14.8835   43.1748  135.5185 C   0  0  0  0  0  0  0  0  0  0  0  0
   13.8672   43.7177  134.7023 C   0  0  0  0  0  0  0  0  0  0  0  0
   12.5936   43.7757  135.1420 C   0  0  0  0  0  0  0  0  0  0  0  0
   15.6011   42.1274  137.6220 N   0  0  0  0  0  0  0  0  0  0  0  0
   17.0040   42.2123  137.2494 C   0  0  0  0  0  0  0  0  0  0  0  0
   17.8709   42.1090  138.4887 C   0  0  0  0  0  0  0  0  0  0  0  0
   17.5023   41.0934  139.3747 N   0  0  0  0  0  0  0  0  0  0  0  0
   16.2381   40.4959  139.3323 C   0  0  0  0  0  0  0  0  0  0  0  0
   15.1820   41.4681  138.8409 C   0  0  0  0  0  0  0  0  0  0  0  0
   18.0045   41.2232  140.7055 C   0  0  0  0  0  0  0  0  0  0  0  0
   19.0217   40.1799  141.0449 C   0  0  0  0  0  0  0  0  0  0  0  0
   18.5851   42.5905  141.0049 C   0  0  0  0  0  0  0  0  0  0  0  0
   10.3410   44.5893  136.9153 C   0  0  0  0  0  0  0  0  0  0  0  0
   10.9862   43.3361  136.9071 O   0  0  0  0  0  0  0  0  0  0  0  0
    9.7081   46.6865  130.6772 N   0  0  0  0  0  0  0  0  0  0  0  0
    9.1623   46.3693  129.8151 H   0  0  0  0  0  0  0  0  0  0  0  0
    9.4875   48.0032  131.0694 C   0  0  0  0  0  0  0  0  0  0  0  0
   10.2026   48.6834  132.0385 C   0  0  0  0  0  0  0  0  0  0  0  0
    9.9419   50.0011  132.4158 C   0  0  0  0  0  0  0  0  0  0  0  0
    8.9171   50.6440  131.7822 C   0  0  0  0  0  0  0  0  0  0  0  0
    8.1946   49.9814  130.8151 C   0  0  0  0  0  0  0  0  0  0  0  0
    8.4290   48.6842  130.4230 C   0  0  0  0  0  0  0  0  0  0  0  0
    7.4387   47.9661  129.2077 S   0  0  0  0  0  0  0  0  0  0  0  0
    7.6824   46.5125  128.9834 O   0  0  0  0  0  0  0  0  0  0  0  0
    7.6158   48.6598  127.8620 O   0  0  0  0  0  0  0  0  0  0  0  0
    5.7249   48.1275  129.6756 C   0  0  0  0  0  0  0  0  0  0  0  0
    5.1835   49.4384  129.1805 C   0  0  0  0  0  0  0  0  0  0  0  0
    4.9031   47.0296  129.0095 C   0  0  0  0  0  0  0  0  0  0  0  0
 25 26  1  0  0  0
 26 10  1  0  0  0
 10 11  2  0  0  0
 11 12  1  0  0  0
 12 13  2  0  0  0
 13 14  1  0  0  0
 14 15  2  0  0  0
 15  8  1  0  0  0
  8  1  1  0  0  0
  1  2  2  0  0  0
  2  3  1  0  0  0
  3  4  2  0  0  0
  4  5  1  0  0  0
  4  6  1  0  0  0
  6 27  1  0  0  0
 27 29  1  0  0  0
 29 30  2  0  0  0
 30 31  1  0  0  0
 31 32  2  0  0  0
 32 33  1  0  0  0
 33 34  2  0  0  0
 34 35  1  0  0  0
 35 36  2  0  0  0
 35 37  2  0  0  0
 35 38  1  0  0  0
 38 39  1  0  0  0
 38 40  1  0  0  0
  6  7  2  0  0  0
 12 16  1  0  0  0
 16 17  1  0  0  0
 17 18  1  0  0  0
 18 19  1  0  0  0
 19 20  1  0  0  0
 20 21  1  0  0  0
 19 22  1  0  0  0
 22 23  1  0  0  0
 22 24  1  0  0  0
 15 10  1  0  0  0
  7  1  1  0  0  0
 21 16  1  0  0  0
 34 29  1  0  0  0
  8  9  1  0  0  0
 27 28  1  0  0  0
M  END
> <minimizedAffinity>
19.17850

> <CNNscore>
0.2086016387

> <CNNaffinity>
7.3388357162

> <CNN_VS>
1.5308932066

> <CNNaffinity_variance>
0.3154979348

$$$$
[H]c1nc(N([H])c2c([H])c([H])c(N3C([H])([H])C([H])([H])N(C([H])(C([H])([H])[H])C([H])([H])[H])C([H])([H])C3([H])[H])c([H])c2OC([H])([H])[H])nc(N([H])c2c([H])c([H])c([H])c([H])c2S(=O)(=O)C([H])(C([H])([H])[H])C([H])([H])[H])c1Cl


 40 43  0  0  0  0  0  0  0  0999 V2000
    6.9714   45.7089  130.1840 C   0  0  0  0  0  0  0  0  0  0  0  0
    7.3988   44.7698  129.3378 N   0  0  0  0  0  0  0  0  0  0  0  0
    8.3768   43.9027  129.6311 C   0  0  0  0  0  0  0  0  0  0  0  0
    8.9396   44.0229  130.8808 C   0  0  0  0  0  0  0  0  0  0  0  0
   10.2408   42.9459  131.3834 Cl  0  0  0  0  0  0  0  0  0  0  0  0
    8.5234   44.9841  131.7899 C   0  0  0  0  0  0  0  0  0  0  0  0
    7.5494   45.8087  131.4283 N   0  0  0  0  0  0  0  0  0  0  0  0
    5.9462   46.6023  129.8146 N   0  0  0  0  0  0  0  0  0  0  0  0
    4.9269   46.2049  129.8985 H   0  0  0  0  0  0  0  0  0  0  0  0
    7.3559   48.2014  128.7782 C   0  0  0  0  0  0  0  0  0  0  0  0
    7.6171   49.4681  128.3489 C   0  0  0  0  0  0  0  0  0  0  0  0
    6.7056   50.5170  128.4491 C   0  0  0  0  0  0  0  0  0  0  0  0
    5.5042   50.1963  129.0156 C   0  0  0  0  0  0  0  0  0  0  0  0
    5.2049   48.8933  129.4697 C   0  0  0  0  0  0  0  0  0  0  0  0
    6.1130   47.9028  129.3554 C   0  0  0  0  0  0  0  0  0  0  0  0
    7.0542   51.7886  127.9673 N   0  0  0  0  0  0  0  0  0  0  0  0
    7.9314   51.8883  126.8120 C   0  0  0  0  0  0  0  0  0  0  0  0
    7.7120   53.2162  126.1145 C   0  0  0  0  0  0  0  0  0  0  0  0
    7.6481   54.3198  126.9691 N   0  0  0  0  0  0  0  0  0  0  0  0
    7.4082   54.1820  128.3404 C   0  0  0  0  0  0  0  0  0  0  0  0
    6.5447   52.9692  128.6327 C   0  0  0  0  0  0  0  0  0  0  0  0
    7.0425   55.4911  126.4201 C   0  0  0  0  0  0  0  0  0  0  0  0
    5.8260   55.1860  125.6045 C   0  0  0  0  0  0  0  0  0  0  0  0
    6.6876   56.5353  127.4593 C   0  0  0  0  0  0  0  0  0  0  0  0
    8.9348   47.0241  127.3889 C   0  0  0  0  0  0  0  0  0  0  0  0
    8.3210   47.1842  128.6478 O   0  0  0  0  0  0  0  0  0  0  0  0
    9.1245   45.0554  133.0648 N   0  0  0  0  0  0  0  0  0  0  0  0
    8.4647   44.7933  133.8634 H   0  0  0  0  0  0  0  0  0  0  0  0
   10.4185   45.3933  133.4493 C   0  0  0  0  0  0  0  0  0  0  0  0
   11.5675   44.7139  133.0870 C   0  0  0  0  0  0  0  0  0  0  0  0
   12.8488   45.0747  133.5052 C   0  0  0  0  0  0  0  0  0  0  0  0
   12.9588   46.1649  134.3203 C   0  0  0  0  0  0  0  0  0  0  0  0
   11.8249   46.8527  134.6910 C   0  0  0  0  0  0  0  0  0  0  0  0
   10.5506   46.5205  134.2943 C   0  0  0  0  0  0  0  0  0  0  0  0
    9.2122   47.4586  134.8438 S   0  0  0  0  0  0  0  0  0  0  0  0
    9.3919   48.0720  136.1907 O   0  0  0  0  0  0  0  0  0  0  0  0
    7.9348   46.6287  134.8997 O   0  0  0  0  0  0  0  0  0  0  0  0
    8.9314   48.8037  133.7064 C   0  0  0  0  0  0  0  0  0  0  0  0
   10.2082   49.5664  133.4951 C   0  0  0  0  0  0  0  0  0  0  0  0
    8.5158   48.2515  132.3474 C   0  0  0  0  0  0  0  0  0  0  0  0
 25 26  1  0  0  0
 26 10  1  0  0  0
 10 11  2  0  0  0
 11 12  1  0  0  0
 12 13  2  0  0  0
 13 14  1  0  0  0
 14 15  2  0  0  0
 15  8  1  0  0  0
  8  1  1  0  0  0
  1  2  2  0  0  0
  2  3  1  0  0  0
  3  4  2  0  0  0
  4  5  1  0  0  0
  4  6  1  0  0  0
  6 27  1  0  0  0
 27 29  1  0  0  0
 29 30  2  0  0  0
 30 31  1  0  0  0
 31 32  2  0  0  0
 32 33  1  0  0  0
 33 34  2  0  0  0
 34 35  1  0  0  0
 35 36  2  0  0  0
 35 37  2  0  0  0
 35 38  1  0  0  0
 38 39  1  0  0  0
 38 40  1  0  0  0
  6  7  2  0  0  0
 12 16  1  0  0  0
 16 17  1  0  0  0
 17 18  1  0  0  0
 18 19  1  0  0  0
 19 20  1  0  0  0
 20 21  1  0  0  0
 19 22  1  0  0  0
 22 23  1  0  0  0
 22 24  1  0  0  0
 15 10  1  0  0  0
  7  1  1  0  0  0
 21 16  1  0  0  0
 34 29  1  0  0  0
  8  9  1  0  0  0
 27 28  1  0  0  0
M  END
> <minimizedAffinity>
16.21841

> <CNNscore>
0.2033627182

> <CNNaffinity>
7.3893585205

> <CNN_VS>
1.5027199984

> <CNNaffinity_variance>
0.2817075849

$$$$
[H]c1nc(N([H])c2c([H])c([H])c(N3C([H])([H])C([H])([H])N(C([H])(C([H])([H])[H])C([H])([H])[H])C([H])([H])C3([H])[H])c([H])c2OC([H])([H])[H])nc(N([H])c2c([H])c([H])c([H])c([H])c2S(=O)(=O)C([H])(C([H])([H])[H])C([H])([H])[H])c1Cl


 40 43  0  0  0  0  0  0  0  0999 V2000
    8.3408   48.7507  131.4489 C   0  0  0  0  0  0  0  0  0  0  0  0
    8.9348   49.4575  132.4123 N   0  0  0  0  0  0  0  0  0  0  0  0
   10.0205   49.0356  133.0739 C   0  0  0  0  0  0  0  0  0  0  0  0
   10.5145   47.8052  132.7069 C   0  0  0  0  0  0  0  0  0  0  0  0
   11.9344   47.1360  133.5081 Cl  0  0  0  0  0  0  0  0  0  0  0  0
    9.9276   47.0399  131.7102 C   0  0  0  0  0  0  0  0  0  0  0  0
    8.8540   47.5232  131.0993 N   0  0  0  0  0  0  0  0  0  0  0  0
    7.1923   49.2410  130.7960 N   0  0  0  0  0  0  0  0  0  0  0  0
    6.2648   48.6945  131.0081 H   0  0  0  0  0  0  0  0  0  0  0  0
    7.2837   50.0218  128.5598 C   0  0  0  0  0  0  0  0  0  0  0  0
    7.2933   51.0297  127.6427 C   0  0  0  0  0  0  0  0  0  0  0  0
    7.1663   52.3759  127.9786 C   0  0  0  0  0  0  0  0  0  0  0  0
    7.0273   52.6357  129.3128 C   0  0  0  0  0  0  0  0  0  0  0  0
    7.0138   51.6128  130.2861 C   0  0  0  0  0  0  0  0  0  0  0  0
    7.1389   50.3201  129.9226 C   0  0  0  0  0  0  0  0  0  0  0  0
    7.1726   53.3480  126.9659 N   0  0  0  0  0  0  0  0  0  0  0  0
    6.3391   54.5297  127.1181 C   0  0  0  0  0  0  0  0  0  0  0  0
    6.9039   55.6660  126.2888 C   0  0  0  0  0  0  0  0  0  0  0  0
    7.2811   55.3092  124.9916 N   0  0  0  0  0  0  0  0  0  0  0  0
    7.4946   53.9770  124.6221 C   0  0  0  0  0  0  0  0  0  0  0  0
    7.9965   53.1513  125.7917 C   0  0  0  0  0  0  0  0  0  0  0  0
    8.1764   56.2109  124.3393 C   0  0  0  0  0  0  0  0  0  0  0  0
    9.3775   56.5363  125.1698 C   0  0  0  0  0  0  0  0  0  0  0  0
    8.6365   55.7310  122.9775 C   0  0  0  0  0  0  0  0  0  0  0  0
    6.3452   47.8056  128.4313 C   0  0  0  0  0  0  0  0  0  0  0  0
    7.4162   48.6795  128.1551 O   0  0  0  0  0  0  0  0  0  0  0  0
   10.4830   45.7900  131.3621 N   0  0  0  0  0  0  0  0  0  0  0  0
   11.1296   45.3865  132.1111 H   0  0  0  0  0  0  0  0  0  0  0  0
   10.3217   45.0005  130.2277 C   0  0  0  0  0  0  0  0  0  0  0  0
   10.8123   45.2940  128.9682 C   0  0  0  0  0  0  0  0  0  0  0  0
   10.6172   44.4836  127.8494 C   0  0  0  0  0  0  0  0  0  0  0  0
    9.8973   43.3362  128.0237 C   0  0  0  0  0  0  0  0  0  0  0  0
    9.4013   43.0289  129.2711 C   0  0  0  0  0  0  0  0  0  0  0  0
    9.5780   43.8079  130.3907 C   0  0  0  0  0  0  0  0  0  0  0  0
    8.8900   43.3145  131.8928 S   0  0  0  0  0  0  0  0  0  0  0  0
    7.8227   42.2796  131.7798 O   0  0  0  0  0  0  0  0  0  0  0  0
    8.2868   44.4953  132.6447 O   0  0  0  0  0  0  0  0  0  0  0  0
   10.1678   42.6158  132.9228 C   0  0  0  0  0  0  0  0  0  0  0  0
   11.3564   42.2489  132.0807 C   0  0  0  0  0  0  0  0  0  0  0  0
   10.6439   43.6561  133.9306 C   0  0  0  0  0  0  0  0  0  0  0  0
 25 26  1  0  0  0
 26 10  1  0  0  0
 10 11  2  0  0  0
 11 12  1  0  0  0
 12 13  2  0  0  0
 13 14  1  0  0  0
 14 15  2  0  0  0
 15  8  1  0  0  0
  8  1  1  0  0  0
  1  2  2  0  0  0
  2  3  1  0  0  0
  3  4  2  0  0  0
  4  5  1  0  0  0
  4  6  1  0  0  0
  6 27  1  0  0  0
 27 29  1  0  0  0
 29 30  2  0  0  0
 30 31  1  0  0  0
 31 32  2  0  0  0
 32 33  1  0  0  0
 33 34  2  0  0  0
 34 35  1  0  0  0
 35 36  2  0  0  0
 35 37  2  0  0  0
 35 38  1  0  0  0
 38 39  1  0  0  0
 38 40  1  0  0  0
  6  7  2  0  0  0
 12 16  1  0  0  0
 16 17  1  0  0  0
 17 18  1  0  0  0
 18 19  1  0  0  0
 19 20  1  0  0  0
 20 21  1  0  0  0
 19 22  1  0  0  0
 22 23  1  0  0  0
 22 24  1  0  0  0
 15 10  1  0  0  0
  7  1  1  0  0  0
 21 16  1  0  0  0
 34 29  1  0  0  0
  8  9  1  0  0  0
 27 28  1  0  0  0
M  END
> <minimizedAffinity>
1.33590

> <CNNscore>
0.1980051249

> <CNNaffinity>
7.4162125587

> <CNN_VS>
1.4684480429

> <CNNaffinity_variance>
0.3395883143

$$$$
[H]c1c([H])c([H])c2c(c1[H])c1c3c(c4c5c([H])c([H])c([H])c([H])c5n5c4c1n2[C@@]1([H])O[C@@]5(C([H])([H])[H])[C@@]([H])(N([H])C([H])([H])[H])C1([H])[H])C([H])([H])N([H])C3=O


 34 41  0  0  0  0  0  0  0  0999 V2000
   11.9243   44.2888  133.4572 C   0  0  0  0  0  0  0  0  0  0  0  0
   11.9538   45.5814  134.2177 C   0  0  0  0  0  0  0  0  0  0  0  0
   11.1765   46.5977  133.4348 C   0  0  0  0  0  0  0  0  0  0  0  0
   10.6667   45.9333  132.1904 O   0  0  0  0  0  0  0  0  0  0  0  0
   11.1288   44.5063  132.2043 C   0  0  0  0  0  0  0  0  0  0  0  0
   10.8452   43.4774  131.1502 C   0  0  0  0  0  0  0  0  0  0  0  0
   10.3162   44.8510  130.9915 N   0  0  0  0  0  0  0  0  0  0  0  0
    9.9980   43.8688  129.9034 C   0  0  0  0  0  0  0  0  0  0  0  0
   10.3527   42.4227  129.7215 C   0  0  0  0  0  0  0  0  0  0  0  0
    9.8827   41.6826  128.5043 C   0  0  0  0  0  0  0  0  0  0  0  0
    9.0581   42.3885  127.4692 C   0  0  0  0  0  0  0  0  0  0  0  0
    8.7034   43.8347  127.6511 C   0  0  0  0  0  0  0  0  0  0  0  0
    9.1734   44.5747  128.8682 C   0  0  0  0  0  0  0  0  0  0  0  0
    8.9818   45.9933  129.3165 C   0  0  0  0  0  0  0  0  0  0  0  0
    8.2835   47.3329  128.8472 C   0  0  0  0  0  0  0  0  0  0  0  0
    7.4880   47.5504  127.5943 C   0  0  0  0  0  0  0  0  0  0  0  0
    7.0259   48.9773  127.5804 N   0  0  0  0  0  0  0  0  0  0  0  0
    7.5357   49.6418  128.8248 C   0  0  0  0  0  0  0  0  0  0  0  0
    7.3083   51.0715  129.2173 O   0  0  0  0  0  0  0  0  0  0  0  0
    8.3130   48.6255  129.6078 C   0  0  0  0  0  0  0  0  0  0  0  0
    9.0438   48.7101  130.9150 C   0  0  0  0  0  0  0  0  0  0  0  0
    9.2922   49.7834  131.9328 C   0  0  0  0  0  0  0  0  0  0  0  0
    8.8720   51.2219  131.9976 C   0  0  0  0  0  0  0  0  0  0  0  0
    9.2790   52.0704  133.1656 C   0  0  0  0  0  0  0  0  0  0  0  0
   10.1063   51.4805  134.2689 C   0  0  0  0  0  0  0  0  0  0  0  0
   10.5266   50.0419  134.2043 C   0  0  0  0  0  0  0  0  0  0  0  0
   10.1195   49.1935  133.0363 C   0  0  0  0  0  0  0  0  0  0  0  0
   10.3824   47.7554  132.7003 N   0  0  0  0  0  0  0  0  0  0  0  0
    9.7176   47.4567  131.3893 C   0  0  0  0  0  0  0  0  0  0  0  0
    9.6881   46.1641  130.6288 C   0  0  0  0  0  0  0  0  0  0  0  0
    6.1991   49.6260  126.5101 H   0  0  0  0  0  0  0  0  0  0  0  0
   12.0836   43.3583  135.8777 C   0  0  0  0  0  0  0  0  0  0  0  0
   12.7496   43.7789  134.6012 N   0  0  0  0  0  0  0  0  0  0  0  0
   13.9578   43.6540  134.6326 H   0  0  0  0  0  0  0  0  0  0  0  0
 32 33  1  0  0  0
 33  1  1  0  0  0
  1  2  1  0  0  0
  2  3  1  0  0  0
  3  4  1  0  0  0
  4  5  1  0  0  0
  5  6  1  0  0  0
  5  7  1  0  0  0
  7  8  1  0  0  0
  8  9  2  0  0  0
  9 10  1  0  0  0
 10 11  2  0  0  0
 11 12  1  0  0  0
 12 13  2  0  0  0
 13 14  1  0  0  0
 14 15  2  0  0  0
 15 16  1  0  0  0
 16 17  1  0  0  0
 17 18  1  0  0  0
 18 19  2  0  0  0
 18 20  1  0  0  0
 20 21  2  0  0  0
 21 22  1  0  0  0
 22 23  2  0  0  0
 23 24  1  0  0  0
 24 25  2  0  0  0
 25 26  1  0  0  0
 26 27  2  0  0  0
 27 28  1  0  0  0
 28 29  1  0  0  0
 29 30  2  0  0  0
  5  1  1  0  0  0
 30  7  1  0  0  0
 28  3  1  0  0  0
 13  8  1  0  0  0
 30 14  1  0  0  0
 20 15  1  0  0  0
 29 21  1  0  0  0
 27 22  1  0  0  0
 33 34  1  0  0  0
 17 31  1  0  0  0
M  END
> <minimizedAffinity>
16.84843

> <CNNscore>
0.4714093208

> <CNNaffinity>
7.6441726685

> <CNN_VS>
3.6035342216

> <CNNaffinity_variance>
1.8455213308

$$$$
[H]c1c([H])c([H])c2c(c1[H])c1c3c(c4c5c([H])c([H])c([H])c([H])c5n5c4c1n2[C@@]1([H])O[C@@]5(C([H])([H])[H])[C@@]([H])(N([H])C([H])([H])[H])C1([H])[H])C([H])([H])N([H])C3=O


 34 41  0  0  0  0  0  0  0  0999 V2000
   11.1878   44.1080  134.9186 C   0  0  0  0  0  0  0  0  0  0  0  0
   11.6006   43.4362  133.6426 C   0  0  0  0  0  0  0  0  0  0  0  0
   11.0233   44.2173  132.4995 C   0  0  0  0  0  0  0  0  0  0  0  0
   10.2536   45.3719  133.0691 O   0  0  0  0  0  0  0  0  0  0  0  0
   10.3553   45.3044  134.5641 C   0  0  0  0  0  0  0  0  0  0  0  0
    9.7336   46.2647  135.5343 C   0  0  0  0  0  0  0  0  0  0  0  0
    9.5408   46.4674  134.0805 N   0  0  0  0  0  0  0  0  0  0  0  0
    8.8938   47.4618  134.9985 C   0  0  0  0  0  0  0  0  0  0  0  0
    8.8688   47.5792  136.4937 C   0  0  0  0  0  0  0  0  0  0  0  0
    8.1218   48.7052  137.1452 C   0  0  0  0  0  0  0  0  0  0  0  0
    7.3999   49.7136  136.3015 C   0  0  0  0  0  0  0  0  0  0  0  0
    7.4249   49.5961  134.8063 C   0  0  0  0  0  0  0  0  0  0  0  0
    8.1719   48.4702  134.1548 C   0  0  0  0  0  0  0  0  0  0  0  0
    8.3726   48.0992  132.7153 C   0  0  0  0  0  0  0  0  0  0  0  0
    7.9792   48.5952  131.2657 C   0  0  0  0  0  0  0  0  0  0  0  0
    7.1467   49.7916  130.9113 C   0  0  0  0  0  0  0  0  0  0  0  0
    7.0450   49.8591  129.4162 N   0  0  0  0  0  0  0  0  0  0  0  0
    7.8147   48.7045  128.8467 C   0  0  0  0  0  0  0  0  0  0  0  0
    7.9783   48.3867  127.3899 O   0  0  0  0  0  0  0  0  0  0  0  0
    8.3921   47.9233  129.9897 C   0  0  0  0  0  0  0  0  0  0  0  0
    9.2404   46.6870  130.0335 C   0  0  0  0  0  0  0  0  0  0  0  0
    9.8355   45.7628  129.0130 C   0  0  0  0  0  0  0  0  0  0  0  0
    9.7845   45.7562  127.5139 C   0  0  0  0  0  0  0  0  0  0  0  0
   10.4923   44.6810  126.7440 C   0  0  0  0  0  0  0  0  0  0  0  0
   11.2513   43.6123  127.4732 C   0  0  0  0  0  0  0  0  0  0  0  0
   11.3024   43.6188  128.9724 C   0  0  0  0  0  0  0  0  0  0  0  0
   10.5945   44.6940  129.7422 C   0  0  0  0  0  0  0  0  0  0  0  0
   10.4684   44.9578  131.2135 N   0  0  0  0  0  0  0  0  0  0  0  0
    9.6315   46.1895  131.3934 C   0  0  0  0  0  0  0  0  0  0  0  0
    9.2187   46.8613  132.6694 C   0  0  0  0  0  0  0  0  0  0  0  0
    6.3038   50.8987  128.6290 H   0  0  0  0  0  0  0  0  0  0  0  0
   11.9666   42.8624  137.0614 C   0  0  0  0  0  0  0  0  0  0  0  0
   11.9681   43.0039  135.5681 N   0  0  0  0  0  0  0  0  0  0  0  0
   12.6410   42.1588  135.0119 H   0  0  0  0  0  0  0  0  0  0  0  0
 32 33  1  0  0  0
 33  1  1  0  0  0
  1  2  1  0  0  0
  2  3  1  0  0  0
  3  4  1  0  0  0
  4  5  1  0  0  0
  5  6  1  0  0  0
  5  7  1  0  0  0
  7  8  1  0  0  0
  8  9  2  0  0  0
  9 10  1  0  0  0
 10 11  2  0  0  0
 11 12  1  0  0  0
 12 13  2  0  0  0
 13 14  1  0  0  0
 14 15  2  0  0  0
 15 16  1  0  0  0
 16 17  1  0  0  0
 17 18  1  0  0  0
 18 19  2  0  0  0
 18 20  1  0  0  0
 20 21  2  0  0  0
 21 22  1  0  0  0
 22 23  2  0  0  0
 23 24  1  0  0  0
 24 25  2  0  0  0
 25 26  1  0  0  0
 26 27  2  0  0  0
 27 28  1  0  0  0
 28 29  1  0  0  0
 29 30  2  0  0  0
  5  1  1  0  0  0
 30  7  1  0  0  0
 28  3  1  0  0  0
 13  8  1  0  0  0
 30 14  1  0  0  0
 20 15  1  0  0  0
 29 21  1  0  0  0
 27 22  1  0  0  0
 33 34  1  0  0  0
 17 31  1  0  0  0
M  END
> <minimizedAffinity>
19.21240

> <CNNscore>
0.4662128985

> <CNNaffinity>
7.6496963501

> <CNN_VS>
3.5663871765

> <CNNaffinity_variance>
1.6794267893

$$$$
[H]c1c([H])c([H])c2c(c1[H])c1c3c(c4c5c([H])c([H])c([H])c([H])c5n5c4c1n2[C@@]1([H])O[C@@]5(C([H])([H])[H])[C@@]([H])(N([H])C([H])([H])[H])C1([H])[H])C([H])([H])N([H])C3=O


 34 41  0  0  0  0  0  0  0  0999 V2000
   12.3294   45.7991  133.8720 C   0  0  0  0  0  0  0  0  0  0  0  0
   12.1889   44.6341  132.9377 C   0  0  0  0  0  0  0  0  0  0  0  0
   11.2689   45.0406  131.8248 C   0  0  0  0  0  0  0  0  0  0  0  0
   10.8409   46.4570  132.0713 O   0  0  0  0  0  0  0  0  0  0  0  0
   11.4963   46.9257  133.3365 C   0  0  0  0  0  0  0  0  0  0  0  0
   11.3451   48.2829  133.9573 C   0  0  0  0  0  0  0  0  0  0  0  0
   10.6290   47.9708  132.6996 N   0  0  0  0  0  0  0  0  0  0  0  0
   10.4367   49.3448  133.2698 C   0  0  0  0  0  0  0  0  0  0  0  0
   10.9859   50.0076  134.4982 C   0  0  0  0  0  0  0  0  0  0  0  0
   10.6081   51.4234  134.8191 C   0  0  0  0  0  0  0  0  0  0  0  0
    9.6812   52.1763  133.9115 C   0  0  0  0  0  0  0  0  0  0  0  0
    9.1320   51.5135  132.6830 C   0  0  0  0  0  0  0  0  0  0  0  0
    9.5097   50.0977  132.3622 C   0  0  0  0  0  0  0  0  0  0  0  0
    9.1291   49.1891  131.2310 C   0  0  0  0  0  0  0  0  0  0  0  0
    8.2464   49.1861  129.9184 C   0  0  0  0  0  0  0  0  0  0  0  0
    7.4133   50.3127  129.3829 C   0  0  0  0  0  0  0  0  0  0  0  0
    6.7579   49.8439  128.1177 N   0  0  0  0  0  0  0  0  0  0  0  0
    7.1860   48.4276  127.8712 C   0  0  0  0  0  0  0  0  0  0  0  0
    6.7676   47.5686  126.7149 O   0  0  0  0  0  0  0  0  0  0  0  0
    8.1059   48.0210  128.9840 C   0  0  0  0  0  0  0  0  0  0  0  0
    8.8338   46.7404  129.2673 C   0  0  0  0  0  0  0  0  0  0  0  0
    8.9436   45.4029  128.5973 C   0  0  0  0  0  0  0  0  0  0  0  0
    8.3291   44.8549  127.3435 C   0  0  0  0  0  0  0  0  0  0  0  0
    8.6289   43.4496  126.9134 C   0  0  0  0  0  0  0  0  0  0  0  0
    9.5433   42.5921  127.7371 C   0  0  0  0  0  0  0  0  0  0  0  0
   10.1579   43.1400  128.9910 C   0  0  0  0  0  0  0  0  0  0  0  0
    9.8580   44.5454  129.4211 C   0  0  0  0  0  0  0  0  0  0  0  0
   10.3134   45.3530  130.6003 N   0  0  0  0  0  0  0  0  0  0  0  0
    9.6804   46.7095  130.5053 C   0  0  0  0  0  0  0  0  0  0  0  0
    9.8209   47.8746  131.4396 C   0  0  0  0  0  0  0  0  0  0  0  0
    5.8363   50.6499  127.2511 H   0  0  0  0  0  0  0  0  0  0  0  0
   12.9424   43.4042  134.6711 C   0  0  0  0  0  0  0  0  0  0  0  0
   13.2312   44.8757  134.6361 N   0  0  0  0  0  0  0  0  0  0  0  0
   14.2235   45.1799  135.2679 H   0  0  0  0  0  0  0  0  0  0  0  0
 32 33  1  0  0  0
 33  1  1  0  0  0
  1  2  1  0  0  0
  2  3  1  0  0  0
  3  4  1  0  0  0
  4  5  1  0  0  0
  5  6  1  0  0  0
  5  7  1  0  0  0
  7  8  1  0  0  0
  8  9  2  0  0  0
  9 10  1  0  0  0
 10 11  2  0  0  0
 11 12  1  0  0  0
 12 13  2  0  0  0
 13 14  1  0  0  0
 14 15  2  0  0  0
 15 16  1  0  0  0
 16 17  1  0  0  0
 17 18  1  0  0  0
 18 19  2  0  0  0
 18 20  1  0  0  0
 20 21  2  0  0  0
 21 22  1  0  0  0
 22 23  2  0  0  0
 23 24  1  0  0  0
 24 25  2  0  0  0
 25 26  1  0  0  0
 26 27  2  0  0  0
 27 28  1  0  0  0
 28 29  1  0  0  0
 29 30  2  0  0  0
  5  1  1  0  0  0
 30  7  1  0  0  0
 28  3  1  0  0  0
 13  8  1  0  0  0
 30 14  1  0  0  0
 20 15  1  0  0  0
 29 21  1  0  0  0
 27 22  1  0  0  0
 33 34  1  0  0  0
 17 31  1  0  0  0
M  END
> <minimizedAffinity>
28.83194

> <CNNscore>
0.4483958483

> <CNNaffinity>
7.4396286011

> <CNN_VS>
3.3358986378

> <CNNaffinity_variance>
1.5414788723

$$$$
[H]c1c([H])c([H])c2c(c1[H])c1c3c(c4c5c([H])c([H])c([H])c([H])c5n5c4c1n2[C@@]1([H])O[C@@]5(C([H])([H])[H])[C@@]([H])(N([H])C([H])([H])[H])C1([H])[H])C([H])([H])N([H])C3=O


 34 41  0  0  0  0  0  0  0  0999 V2000
   12.3282   43.6699  132.8777 C   0  0  0  0  0  0  0  0  0  0  0  0
   11.8514   44.3133  134.1460 C   0  0  0  0  0  0  0  0  0  0  0  0
   10.8760   45.3925  133.7800 C   0  0  0  0  0  0  0  0  0  0  0  0
   10.7500   45.4161  132.2855 O   0  0  0  0  0  0  0  0  0  0  0  0
   11.6476   44.3515  131.7278 C   0  0  0  0  0  0  0  0  0  0  0  0
   11.8320   44.0257  130.2753 C   0  0  0  0  0  0  0  0  0  0  0  0
   10.9049   45.1108  130.6687 N   0  0  0  0  0  0  0  0  0  0  0  0
   11.0454   44.8338  129.2012 C   0  0  0  0  0  0  0  0  0  0  0  0
   11.8697   43.8362  128.4426 C   0  0  0  0  0  0  0  0  0  0  0  0
   11.8028   43.7924  126.9446 C   0  0  0  0  0  0  0  0  0  0  0  0
   10.9117   44.7460  126.2054 C   0  0  0  0  0  0  0  0  0  0  0  0
   10.0874   45.7435  126.9641 C   0  0  0  0  0  0  0  0  0  0  0  0
   10.1543   45.7874  128.4620 C   0  0  0  0  0  0  0  0  0  0  0  0
    9.4630   46.6539  129.4726 C   0  0  0  0  0  0  0  0  0  0  0  0
    8.4221   47.8428  129.5457 C   0  0  0  0  0  0  0  0  0  0  0  0
    7.7414   48.5244  128.3958 C   0  0  0  0  0  0  0  0  0  0  0  0
    6.8439   49.5890  128.9535 N   0  0  0  0  0  0  0  0  0  0  0  0
    6.9698   49.5654  130.4480 C   0  0  0  0  0  0  0  0  0  0  0  0
    6.2473   50.4634  131.4080 O   0  0  0  0  0  0  0  0  0  0  0  0
    7.9452   48.4862  130.8141 C   0  0  0  0  0  0  0  0  0  0  0  0
    8.4608   48.0062  132.1384 C   0  0  0  0  0  0  0  0  0  0  0  0
    8.2328   48.3801  133.5729 C   0  0  0  0  0  0  0  0  0  0  0  0
    7.3622   49.4206  134.2128 C   0  0  0  0  0  0  0  0  0  0  0  0
    7.3400   49.5653  135.7056 C   0  0  0  0  0  0  0  0  0  0  0  0
    8.1883   48.6694  136.5586 C   0  0  0  0  0  0  0  0  0  0  0  0
    9.0589   47.6288  135.9188 C   0  0  0  0  0  0  0  0  0  0  0  0
    9.0811   47.4842  134.4260 C   0  0  0  0  0  0  0  0  0  0  0  0
    9.8334   46.5565  133.5185 N   0  0  0  0  0  0  0  0  0  0  0  0
    9.4500   46.8791  132.1047 C   0  0  0  0  0  0  0  0  0  0  0  0
    9.9269   46.2357  130.8364 C   0  0  0  0  0  0  0  0  0  0  0  0
    5.9733   50.5147  128.1566 H   0  0  0  0  0  0  0  0  0  0  0  0
   13.6865   43.3964  135.0755 C   0  0  0  0  0  0  0  0  0  0  0  0
   13.1442   42.8165  133.8028 N   0  0  0  0  0  0  0  0  0  0  0  0
   13.4417   41.6486  133.6486 H   0  0  0  0  0  0  0  0  0  0  0  0
 32 33  1  0  0  0
 33  1  1  0  0  0
  1  2  1  0  0  0
  2  3  1  0  0  0
  3  4  1  0  0  0
  4  5  1  0  0  0
  5  6  1  0  0  0
  5  7  1  0  0  0
  7  8  1  0  0  0
  8  9  2  0  0  0
  9 10  1  0  0  0
 10 11  2  0  0  0
 11 12  1  0  0  0
 12 13  2  0  0  0
 13 14  1  0  0  0
 14 15  2  0  0  0
 15 16  1  0  0  0
 16 17  1  0  0  0
 17 18  1  0  0  0
 18 19  2  0  0  0
 18 20  1  0  0  0
 20 21  2  0  0  0
 21 22  1  0  0  0
 22 23  2  0  0  0
 23 24  1  0  0  0
 24 25  2  0  0  0
 25 26  1  0  0  0
 26 27  2  0  0  0
 27 28  1  0  0  0
 28 29  1  0  0  0
 29 30  2  0  0  0
  5  1  1  0  0  0
 30  7  1  0  0  0
 28  3  1  0  0  0
 13  8  1  0  0  0
 30 14  1  0  0  0
 20 15  1  0  0  0
 29 21  1  0  0  0
 27 22  1  0  0  0
 33 34  1  0  0  0
 17 31  1  0  0  0
M  END
> <minimizedAffinity>
21.40950

> <CNNscore>
0.4412580132

> <CNNaffinity>
7.6386976242

> <CNN_VS>
3.3706364632

> <CNNaffinity_variance>
2.0417580605

$$$$
[H]c1c([H])c([H])c2c(c1[H])c1c3c(c4c5c([H])c([H])c([H])c([H])c5n5c4c1n2[C@@]1([H])O[C@@]5(C([H])([H])[H])[C@@]([H])(N([H])C([H])([H])[H])C1([H])[H])C([H])([H])N([H])C3=O


 34 41  0  0  0  0  0  0  0  0999 V2000
   11.0324   41.6738  131.5466 C   0  0  0  0  0  0  0  0  0  0  0  0
   10.9126   41.9321  133.0193 C   0  0  0  0  0  0  0  0  0  0  0  0
   10.5543   43.3763  133.2090 C   0  0  0  0  0  0  0  0  0  0  0  0
   10.4527   44.0105  131.8535 O   0  0  0  0  0  0  0  0  0  0  0  0
   10.7482   42.9583  130.8261 C   0  0  0  0  0  0  0  0  0  0  0  0
   10.7577   43.1560  129.3392 C   0  0  0  0  0  0  0  0  0  0  0  0
   10.4455   44.2994  130.2263 N   0  0  0  0  0  0  0  0  0  0  0  0
   10.4390   44.5617  128.7494 C   0  0  0  0  0  0  0  0  0  0  0  0
   10.7009   43.6716  127.5709 C   0  0  0  0  0  0  0  0  0  0  0  0
   10.6200   44.2262  126.1794 C   0  0  0  0  0  0  0  0  0  0  0  0
   10.2772   45.6708  125.9667 C   0  0  0  0  0  0  0  0  0  0  0  0
   10.0152   46.5610  127.1453 C   0  0  0  0  0  0  0  0  0  0  0  0
   10.0961   46.0064  128.5367 C   0  0  0  0  0  0  0  0  0  0  0  0
    9.8907   46.6371  129.8820 C   0  0  0  0  0  0  0  0  0  0  0  0
    9.5261   48.0349  130.5266 C   0  0  0  0  0  0  0  0  0  0  0  0
    9.2418   49.3194  129.8060 C   0  0  0  0  0  0  0  0  0  0  0  0
    8.9464   50.3717  130.8334 N   0  0  0  0  0  0  0  0  0  0  0  0
    9.0480   49.7374  132.1889 C   0  0  0  0  0  0  0  0  0  0  0  0
    8.8297   50.4264  133.5034 O   0  0  0  0  0  0  0  0  0  0  0  0
    9.4063   48.2932  131.9994 C   0  0  0  0  0  0  0  0  0  0  0  0
    9.6389   47.1800  132.9774 C   0  0  0  0  0  0  0  0  0  0  0  0
    9.6133   47.0473  134.4713 C   0  0  0  0  0  0  0  0  0  0  0  0
    9.3305   48.0373  135.5622 C   0  0  0  0  0  0  0  0  0  0  0  0
    9.3798   47.6058  136.9979 C   0  0  0  0  0  0  0  0  0  0  0  0
    9.7118   46.1843  137.3428 C   0  0  0  0  0  0  0  0  0  0  0  0
    9.9947   45.1942  136.2519 C   0  0  0  0  0  0  0  0  0  0  0  0
    9.9454   45.6258  134.8162 C   0  0  0  0  0  0  0  0  0  0  0  0
   10.1763   44.8799  133.5354 N   0  0  0  0  0  0  0  0  0  0  0  0
    9.9869   45.8404  132.3990 C   0  0  0  0  0  0  0  0  0  0  0  0
   10.1067   45.5821  130.9263 C   0  0  0  0  0  0  0  0  0  0  0  0
    8.6086   51.8062  130.5544 H   0  0  0  0  0  0  0  0  0  0  0  0
   11.0894   39.1236  131.0533 C   0  0  0  0  0  0  0  0  0  0  0  0
   11.3559   40.2741  131.9782 N   0  0  0  0  0  0  0  0  0  0  0  0
   11.8334   39.9284  133.0406 H   0  0  0  0  0  0  0  0  0  0  0  0
 32 33  1  0  0  0
 33  1  1  0  0  0
  1  2  1  0  0  0
  2  3  1  0  0  0
  3  4  1  0  0  0
  4  5  1  0  0  0
  5  6  1  0  0  0
  5  7  1  0  0  0
  7  8  1  0  0  0
  8  9  2  0  0  0
  9 10  1  0  0  0
 10 11  2  0  0  0
 11 12  1  0  0  0
 12 13  2  0  0  0
 13 14  1  0  0  0
 14 15  2  0  0  0
 15 16  1  0  0  0
 16 17  1  0  0  0
 17 18  1  0  0  0
 18 19  2  0  0  0
 18 20  1  0  0  0
 20 21  2  0  0  0
 21 22  1  0  0  0
 22 23  2  0  0  0
 23 24  1  0  0  0
 24 25  2  0  0  0
 25 26  1  0  0  0
 26 27  2  0  0  0
 27 28  1  0  0  0
 28 29  1  0  0  0
 29 30  2  0  0  0
  5  1  1  0  0  0
 30  7  1  0  0  0
 28  3  1  0  0  0
 13  8  1  0  0  0
 30 14  1  0  0  0
 20 15  1  0  0  0
 29 21  1  0  0  0
 27 22  1  0  0  0
 33 34  1  0  0  0
 17 31  1  0  0  0
M  END
> <minimizedAffinity>
21.82357

> <CNNscore>
0.4331049025

> <CNNaffinity>
7.4102921486

> <CNN_VS>
3.2094337940

> <CNNaffinity_variance>
1.8280502558

$$$$
[H]c1c([H])c([H])c2c(c1[H])c1c3c(c4c5c([H])c([H])c([H])c([H])c5n5c4c1n2[C@@]1([H])O[C@@]5(C([H])([H])[H])[C@@]([H])(N([H])C([H])([H])[H])C1([H])[H])C([H])([H])N([H])C3=O


 34 41  0  0  0  0  0  0  0  0999 V2000
    9.5714   49.8970  132.4294 C   0  0  0  0  0  0  0  0  0  0  0  0
    9.5959   49.8429  130.9306 C   0  0  0  0  0  0  0  0  0  0  0  0
    9.7499   48.4081  130.5209 C   0  0  0  0  0  0  0  0  0  0  0  0
    9.8205   47.5755  131.7666 O   0  0  0  0  0  0  0  0  0  0  0  0
    9.7102   48.4957  132.9461 C   0  0  0  0  0  0  0  0  0  0  0  0
    9.7345   48.0863  134.3889 C   0  0  0  0  0  0  0  0  0  0  0  0
    9.8548   47.0541  133.3345 N   0  0  0  0  0  0  0  0  0  0  0  0
    9.8860   46.5807  134.7576 C   0  0  0  0  0  0  0  0  0  0  0  0
    9.7933   47.3156  136.0619 C   0  0  0  0  0  0  0  0  0  0  0  0
    9.8556   46.5584  137.3554 C   0  0  0  0  0  0  0  0  0  0  0  0
   10.0104   45.0666  137.3444 C   0  0  0  0  0  0  0  0  0  0  0  0
   10.1031   44.3317  136.0399 C   0  0  0  0  0  0  0  0  0  0  0  0
   10.0409   45.0888  134.7466 C   0  0  0  0  0  0  0  0  0  0  0  0
   10.1054   44.6400  133.3167 C   0  0  0  0  0  0  0  0  0  0  0  0
   10.2535   43.3162  132.4636 C   0  0  0  0  0  0  0  0  0  0  0  0
   10.3923   41.9148  132.9803 C   0  0  0  0  0  0  0  0  0  0  0  0
   10.5026   40.9947  131.8008 N   0  0  0  0  0  0  0  0  0  0  0  0
   10.4319   41.8273  130.5551 C   0  0  0  0  0  0  0  0  0  0  0  0
   10.5028   41.3152  129.1470 O   0  0  0  0  0  0  0  0  0  0  0  0
   10.2780   43.2621  130.9647 C   0  0  0  0  0  0  0  0  0  0  0  0
   10.1569   44.5263  130.1665 C   0  0  0  0  0  0  0  0  0  0  0  0
   10.1396   44.8709  128.7068 C   0  0  0  0  0  0  0  0  0  0  0  0
   10.2431   44.0227  127.4739 C   0  0  0  0  0  0  0  0  0  0  0  0
   10.1939   44.6614  126.1177 C   0  0  0  0  0  0  0  0  0  0  0  0
   10.0413   46.1485  125.9942 C   0  0  0  0  0  0  0  0  0  0  0  0
    9.9377   46.9968  127.2270 C   0  0  0  0  0  0  0  0  0  0  0  0
    9.9869   46.3580  128.5832 C   0  0  0  0  0  0  0  0  0  0  0  0
    9.9099   46.9325  129.9667 N   0  0  0  0  0  0  0  0  0  0  0  0
   10.0150   45.8005  130.9452 C   0  0  0  0  0  0  0  0  0  0  0  0
    9.9905   45.8546  132.4440 C   0  0  0  0  0  0  0  0  0  0  0  0
   10.6565   39.5037  131.8571 H   0  0  0  0  0  0  0  0  0  0  0  0
    9.5914   52.3191  133.3691 C   0  0  0  0  0  0  0  0  0  0  0  0
    9.4209   51.3742  132.2167 N   0  0  0  0  0  0  0  0  0  0  0  0
    9.1639   51.9402  131.1727 H   0  0  0  0  0  0  0  0  0  0  0  0
 32 33  1  0  0  0
 33  1  1  0  0  0
  1  2  1  0  0  0
  2  3  1  0  0  0
  3  4  1  0  0  0
  4  5  1  0  0  0
  5  6  1  0  0  0
  5  7  1  0  0  0
  7  8  1  0  0  0
  8  9  2  0  0  0
  9 10  1  0  0  0
 10 11  2  0  0  0
 11 12  1  0  0  0
 12 13  2  0  0  0
 13 14  1  0  0  0
 14 15  2  0  0  0
 15 16  1  0  0  0
 16 17  1  0  0  0
 17 18  1  0  0  0
 18 19  2  0  0  0
 18 20  1  0  0  0
 20 21  2  0  0  0
 21 22  1  0  0  0
 22 23  2  0  0  0
 23 24  1  0  0  0
 24 25  2  0  0  0
 25 26  1  0  0  0
 26 27  2  0  0  0
 27 28  1  0  0  0
 28 29  1  0  0  0
 29 30  2  0  0  0
  5  1  1  0  0  0
 30  7  1  0  0  0
 28  3  1  0  0  0
 13  8  1  0  0  0
 30 14  1  0  0  0
 20 15  1  0  0  0
 29 21  1  0  0  0
 27 22  1  0  0  0
 33 34  1  0  0  0
 17 31  1  0  0  0
M  END
> <minimizedAffinity>
25.35664

> <CNNscore>
0.4258942604

> <CNNaffinity>
7.6697096825

> <CNN_VS>
3.2664852142

> <CNNaffinity_variance>
2.8269801140

$$$$
[H]c1c([H])c([H])c2c(c1[H])c1c3c(c4c5c([H])c([H])c([H])c([H])c5n5c4c1n2[C@@]1([H])O[C@@]5(C([H])([H])[H])[C@@]([H])(N([H])C([H])([H])[H])C1([H])[H])C([H])([H])N([H])C3=O


 34 41  0  0  0  0  0  0  0  0999 V2000
   11.5000   42.8614  132.5907 C   0  0  0  0  0  0  0  0  0  0  0  0
   11.6260   42.7050  131.1042 C   0  0  0  0  0  0  0  0  0  0  0  0
   10.9981   43.9037  130.4570 C   0  0  0  0  0  0  0  0  0  0  0  0
   10.4839   44.8010  131.5435 O   0  0  0  0  0  0  0  0  0  0  0  0
   10.7941   44.1568  132.8622 C   0  0  0  0  0  0  0  0  0  0  0  0
   10.4574   44.7107  134.2149 C   0  0  0  0  0  0  0  0  0  0  0  0
   10.0823   45.4699  133.0005 N   0  0  0  0  0  0  0  0  0  0  0  0
    9.7178   46.0771  134.3228 C   0  0  0  0  0  0  0  0  0  0  0  0
    9.9290   45.6119  135.7331 C   0  0  0  0  0  0  0  0  0  0  0  0
    9.4452   46.4496  136.8795 C   0  0  0  0  0  0  0  0  0  0  0  0
    8.7503   47.7524  136.6156 C   0  0  0  0  0  0  0  0  0  0  0  0
    8.5392   48.2176  135.2052 C   0  0  0  0  0  0  0  0  0  0  0  0
    9.0230   47.3799  134.0589 C   0  0  0  0  0  0  0  0  0  0  0  0
    8.9579   47.5780  132.5734 C   0  0  0  0  0  0  0  0  0  0  0  0
    8.4265   48.6194  131.5079 C   0  0  0  0  0  0  0  0  0  0  0  0
    7.7206   49.9148  131.7794 C   0  0  0  0  0  0  0  0  0  0  0  0
    7.4104   50.5590  130.4608 N   0  0  0  0  0  0  0  0  0  0  0  0
    7.9246   49.6617  129.3742 C   0  0  0  0  0  0  0  0  0  0  0  0
    7.8279   49.9181  127.8995 O   0  0  0  0  0  0  0  0  0  0  0  0
    8.5526   48.4630  130.0213 C   0  0  0  0  0  0  0  0  0  0  0  0
    9.2230   47.2493  129.4491 C   0  0  0  0  0  0  0  0  0  0  0  0
    9.5311   46.7497  128.0688 C   0  0  0  0  0  0  0  0  0  0  0  0
    9.2599   47.3237  126.7097 C   0  0  0  0  0  0  0  0  0  0  0  0
    9.6948   46.5809  125.4813 C   0  0  0  0  0  0  0  0  0  0  0  0
   10.4010   45.2641  125.6119 C   0  0  0  0  0  0  0  0  0  0  0  0
   10.6723   44.6899  126.9709 C   0  0  0  0  0  0  0  0  0  0  0  0
   10.2373   45.4328  128.1993 C   0  0  0  0  0  0  0  0  0  0  0  0
   10.3656   45.1185  129.6604 N   0  0  0  0  0  0  0  0  0  0  0  0
    9.7388   46.2411  130.4328 C   0  0  0  0  0  0  0  0  0  0  0  0
    9.6127   46.3975  131.9193 C   0  0  0  0  0  0  0  0  0  0  0  0
    6.7092   51.8701  130.2633 H   0  0  0  0  0  0  0  0  0  0  0  0
   11.5573   40.3195  132.0561 C   0  0  0  0  0  0  0  0  0  0  0  0
   12.2106   41.5410  132.6316 N   0  0  0  0  0  0  0  0  0  0  0  0
   13.3104   41.3167  133.0968 H   0  0  0  0  0  0  0  0  0  0  0  0
 32 33  1  0  0  0
 33  1  1  0  0  0
  1  2  1  0  0  0
  2  3  1  0  0  0
  3  4  1  0  0  0
  4  5  1  0  0  0
  5  6  1  0  0  0
  5  7  1  0  0  0
  7  8  1  0  0  0
  8  9  2  0  0  0
  9 10  1  0  0  0
 10 11  2  0  0  0
 11 12  1  0  0  0
 12 13  2  0  0  0
 13 14  1  0  0  0
 14 15  2  0  0  0
 15 16  1  0  0  0
 16 17  1  0  0  0
 17 18  1  0  0  0
 18 19  2  0  0  0
 18 20  1  0  0  0
 20 21  2  0  0  0
 21 22  1  0  0  0
 22 23  2  0  0  0
 23 24  1  0  0  0
 24 25  2  0  0  0
 25 26  1  0  0  0
 26 27  2  0  0  0
 27 28  1  0  0  0
 28 29  1  0  0  0
 29 30  2  0  0  0
  5  1  1  0  0  0
 30  7  1  0  0  0
 28  3  1  0  0  0
 13  8  1  0  0  0
 30 14  1  0  0  0
 20 15  1  0  0  0
 29 21  1  0  0  0
 27 22  1  0  0  0
 33 34  1  0  0  0
 17 31  1  0  0  0
M  END
> <minimizedAffinity>
21.79329

> <CNNscore>
0.4253296256

> <CNNaffinity>
7.5073623657

> <CNN_VS>
3.1931035519

> <CNNaffinity_variance>
2.2051548958

$$$$
[H]c1c([H])c([H])c2c(c1[H])c1c3c(c4c5c([H])c([H])c([H])c([H])c5n5c4c1n2[C@@]1([H])O[C@@]5(C([H])([H])[H])[C@@]([H])(N([H])C([H])([H])[H])C1([H])[H])C([H])([H])N([H])C3=O


 34 41  0  0  0  0  0  0  0  0999 V2000
   14.0852   43.9023  130.1044 C   0  0  0  0  0  0  0  0  0  0  0  0
   13.9470   44.3370  128.6754 C   0  0  0  0  0  0  0  0  0  0  0  0
   12.6039   44.9857  128.5160 C   0  0  0  0  0  0  0  0  0  0  0  0
   11.9120   44.9520  129.8465 O   0  0  0  0  0  0  0  0  0  0  0  0
   12.8275   44.2824  130.8281 C   0  0  0  0  0  0  0  0  0  0  0  0
   12.5364   44.0361  132.2789 C   0  0  0  0  0  0  0  0  0  0  0  0
   11.5253   44.7129  131.4354 N   0  0  0  0  0  0  0  0  0  0  0  0
   11.1742   44.4960  132.8775 C   0  0  0  0  0  0  0  0  0  0  0  0
   11.9267   43.8610  134.0091 C   0  0  0  0  0  0  0  0  0  0  0  0
   11.3070   43.7859  135.3732 C   0  0  0  0  0  0  0  0  0  0  0  0
    9.9350   44.3457  135.6055 C   0  0  0  0  0  0  0  0  0  0  0  0
    9.1825   44.9807  134.4738 C   0  0  0  0  0  0  0  0  0  0  0  0
    9.8021   45.0558  133.1099 C   0  0  0  0  0  0  0  0  0  0  0  0
    9.3051   45.6188  131.8113 C   0  0  0  0  0  0  0  0  0  0  0  0
    8.0379   46.3488  131.2084 C   0  0  0  0  0  0  0  0  0  0  0  0
    6.7803   46.7288  131.9322 C   0  0  0  0  0  0  0  0  0  0  0  0
    5.8648   47.3985  130.9506 N   0  0  0  0  0  0  0  0  0  0  0  0
    6.5567   47.4322  129.6201 C   0  0  0  0  0  0  0  0  0  0  0  0
    6.0028   48.0128  128.3528 O   0  0  0  0  0  0  0  0  0  0  0  0
    7.8998   46.7835  129.7794 C   0  0  0  0  0  0  0  0  0  0  0  0
    9.0148   46.5324  128.8079 C   0  0  0  0  0  0  0  0  0  0  0  0
    9.2453   46.8076  127.3516 C   0  0  0  0  0  0  0  0  0  0  0  0
    8.3929   47.4651  126.3071 C   0  0  0  0  0  0  0  0  0  0  0  0
    8.9000   47.6018  124.9021 C   0  0  0  0  0  0  0  0  0  0  0  0
   10.2596   47.0810  124.5415 C   0  0  0  0  0  0  0  0  0  0  0  0
   11.1122   46.4234  125.5860 C   0  0  0  0  0  0  0  0  0  0  0  0
   10.6050   46.2868  126.9910 C   0  0  0  0  0  0  0  0  0  0  0  0
   11.2148   45.6897  128.2246 N   0  0  0  0  0  0  0  0  0  0  0  0
   10.2320   45.8416  129.3475 C   0  0  0  0  0  0  0  0  0  0  0  0
   10.3702   45.4068  130.7765 C   0  0  0  0  0  0  0  0  0  0  0  0
    4.4976   47.9393  131.2473 H   0  0  0  0  0  0  0  0  0  0  0  0
   15.6532   43.0275  128.2266 C   0  0  0  0  0  0  0  0  0  0  0  0
   15.4305   43.4098  129.6599 N   0  0  0  0  0  0  0  0  0  0  0  0
   16.4224   43.2715  130.3478 H   0  0  0  0  0  0  0  0  0  0  0  0
 32 33  1  0  0  0
 33  1  1  0  0  0
  1  2  1  0  0  0
  2  3  1  0  0  0
  3  4  1  0  0  0
  4  5  1  0  0  0
  5  6  1  0  0  0
  5  7  1  0  0  0
  7  8  1  0  0  0
  8  9  2  0  0  0
  9 10  1  0  0  0
 10 11  2  0  0  0
 11 12  1  0  0  0
 12 13  2  0  0  0
 13 14  1  0  0  0
 14 15  2  0  0  0
 15 16  1  0  0  0
 16 17  1  0  0  0
 17 18  1  0  0  0
 18 19  2  0  0  0
 18 20  1  0  0  0
 20 21  2  0  0  0
 21 22  1  0  0  0
 22 23  2  0  0  0
 23 24  1  0  0  0
 24 25  2  0  0  0
 25 26  1  0  0  0
 26 27  2  0  0  0
 27 28  1  0  0  0
 28 29  1  0  0  0
 29 30  2  0  0  0
  5  1  1  0  0  0
 30  7  1  0  0  0
 28  3  1  0  0  0
 13  8  1  0  0  0
 30 14  1  0  0  0
 20 15  1  0  0  0
 29 21  1  0  0  0
 27 22  1  0  0  0
 33 34  1  0  0  0
 17 31  1  0  0  0
M  END
> <minimizedAffinity>
37.20964

> <CNNscore>
0.4220704734

> <CNNaffinity>
7.2736215591

> <CNN_VS>
3.0699808598

> <CNNaffinity_variance>
1.3978177309

$$$$
[H]c1c([H])c([H])c2c(c1[H])c1c3c(c4c5c([H])c([H])c([H])c([H])c5n5c4c1n2[C@@]1([H])O[C@@]5(C([H])([H])[H])[C@@]([H])(N([H])C([H])([H])[H])C1([H])[H])C([H])([H])N([H])C3=O


 34 41  0  0  0  0  0  0  0  0999 V2000
    8.1089   49.0796  129.3701 C   0  0  0  0  0  0  0  0  0  0  0  0
    8.5833   49.8921  130.5384 C   0  0  0  0  0  0  0  0  0  0  0  0
    9.4610   49.0185  131.3848 C   0  0  0  0  0  0  0  0  0  0  0  0
    9.5291   47.6660  130.7397 O   0  0  0  0  0  0  0  0  0  0  0  0
    8.6934   47.7038  129.4946 C   0  0  0  0  0  0  0  0  0  0  0  0
    8.4798   46.5656  128.5412 C   0  0  0  0  0  0  0  0  0  0  0  0
    9.3373   46.3701  129.7322 N   0  0  0  0  0  0  0  0  0  0  0  0
    9.1633   45.1937  128.8178 C   0  0  0  0  0  0  0  0  0  0  0  0
    8.3881   45.0174  127.5458 C   0  0  0  0  0  0  0  0  0  0  0  0
    8.4022   43.6959  126.8360 C   0  0  0  0  0  0  0  0  0  0  0  0
    9.1914   42.5510  127.3983 C   0  0  0  0  0  0  0  0  0  0  0  0
    9.9666   42.7274  128.6703 C   0  0  0  0  0  0  0  0  0  0  0  0
    9.9525   44.0488  129.3800 C   0  0  0  0  0  0  0  0  0  0  0  0
   10.6144   44.5174  130.6420 C   0  0  0  0  0  0  0  0  0  0  0  0
   11.5656   43.9822  131.7869 C   0  0  0  0  0  0  0  0  0  0  0  0
   12.1501   42.6064  131.9114 C   0  0  0  0  0  0  0  0  0  0  0  0
   12.9857   42.5686  133.1565 N   0  0  0  0  0  0  0  0  0  0  0  0
   12.9177   43.9210  133.8016 C   0  0  0  0  0  0  0  0  0  0  0  0
   13.6064   44.3284  135.0704 O   0  0  0  0  0  0  0  0  0  0  0  0
   12.0400   44.7948  132.9552 C   0  0  0  0  0  0  0  0  0  0  0  0
   11.6114   46.2252  133.0974 C   0  0  0  0  0  0  0  0  0  0  0  0
   11.8642   47.3230  134.0876 C   0  0  0  0  0  0  0  0  0  0  0  0
   12.6778   47.3712  135.3469 C   0  0  0  0  0  0  0  0  0  0  0  0
   12.7448   48.6371  136.1487 C   0  0  0  0  0  0  0  0  0  0  0  0
   11.9981   49.8549  135.6913 C   0  0  0  0  0  0  0  0  0  0  0  0
   11.1844   49.8069  134.4320 C   0  0  0  0  0  0  0  0  0  0  0  0
   11.1175   48.5409  133.6302 C   0  0  0  0  0  0  0  0  0  0  0  0
   10.4033   48.1957  132.3571 N   0  0  0  0  0  0  0  0  0  0  0  0
   10.7085   46.7645  132.0278 C   0  0  0  0  0  0  0  0  0  0  0  0
   10.2341   45.9521  130.8596 C   0  0  0  0  0  0  0  0  0  0  0  0
   13.7544   41.3860  133.6669 H   0  0  0  0  0  0  0  0  0  0  0  0
    6.4739   51.0099  129.9622 C   0  0  0  0  0  0  0  0  0  0  0  0
    7.3940   50.3407  128.9847 N   0  0  0  0  0  0  0  0  0  0  0  0
    7.4658   50.9265  127.9227 H   0  0  0  0  0  0  0  0  0  0  0  0
 32 33  1  0  0  0
 33  1  1  0  0  0
  1  2  1  0  0  0
  2  3  1  0  0  0
  3  4  1  0  0  0
  4  5  1  0  0  0
  5  6  1  0  0  0
  5  7  1  0  0  0
  7  8  1  0  0  0
  8  9  2  0  0  0
  9 10  1  0  0  0
 10 11  2  0  0  0
 11 12  1  0  0  0
 12 13  2  0  0  0
 13 14  1  0  0  0
 14 15  2  0  0  0
 15 16  1  0  0  0
 16 17  1  0  0  0
 17 18  1  0  0  0
 18 19  2  0  0  0
 18 20  1  0  0  0
 20 21  2  0  0  0
 21 22  1  0  0  0
 22 23  2  0  0  0
 23 24  1  0  0  0
 24 25  2  0  0  0
 25 26  1  0  0  0
 26 27  2  0  0  0
 27 28  1  0  0  0
 28 29  1  0  0  0
 29 30  2  0  0  0
  5  1  1  0  0  0
 30  7  1  0  0  0
 28  3  1  0  0  0
 13  8  1  0  0  0
 30 14  1  0  0  0
 20 15  1  0  0  0
 29 21  1  0  0  0
 27 22  1  0  0  0
 33 34  1  0  0  0
 17 31  1  0  0  0
M  END
> <minimizedAffinity>
23.22707

> <CNNscore>
0.4069292545

> <CNNaffinity>
7.3916521072

> <CNN_VS>
3.0078794956

> <CNNaffinity_variance>
1.0953538418

$$$$
[H]c1c([H])c([N+](=O)[O-])c([H])c([H])c1N1C([H])([H])C([H])([H])N(C(=O)c2nc3c([H])c([H])c([H])c([H])c3s2)C([H])([H])C1([H])[H]


 26 29  0  0  0  0  0  0  0  0999 V2000
    9.2635   46.6499  128.9229 N   0  0  0  0  0  0  0  0  0  0  0  0
   10.7287   46.5880  129.1130 C   0  0  0  0  0  0  0  0  0  0  0  0
   11.1202   45.0982  129.1166 C   0  0  0  0  0  0  0  0  0  0  0  0
   10.2191   44.3984  130.0499 N   0  0  0  0  0  0  0  0  0  0  0  0
    8.8064   44.4884  129.8150 C   0  0  0  0  0  0  0  0  0  0  0  0
    8.5601   45.4335  128.6344 C   0  0  0  0  0  0  0  0  0  0  0  0
   10.7925   43.6767  131.1253 C   0  0  0  0  0  0  0  0  0  0  0  0
   12.0197   43.6319  131.2871 O   0  0  0  0  0  0  0  0  0  0  0  0
    9.9416   42.9664  132.0703 C   0  0  0  0  0  0  0  0  0  0  0  0
    8.6536   42.6749  131.9421 N   0  0  0  0  0  0  0  0  0  0  0  0
    8.0252   42.0352  132.8739 C   0  0  0  0  0  0  0  0  0  0  0  0
    6.6619   41.6731  132.8452 C   0  0  0  0  0  0  0  0  0  0  0  0
    6.1107   40.9984  133.8898 C   0  0  0  0  0  0  0  0  0  0  0  0
    6.8131   40.6302  135.0133 C   0  0  0  0  0  0  0  0  0  0  0  0
    8.1405   40.9746  135.0575 C   0  0  0  0  0  0  0  0  0  0  0  0
    8.7305   41.6714  133.9903 C   0  0  0  0  0  0  0  0  0  0  0  0
   10.2755   42.2844  133.6178 S   0  0  0  0  0  0  0  0  0  0  0  0
    7.4243   50.3541  129.2751 C   0  0  0  0  0  0  0  0  0  0  0  0
    6.9834   49.4621  128.3276 C   0  0  0  0  0  0  0  0  0  0  0  0
    7.5847   48.2439  128.2121 C   0  0  0  0  0  0  0  0  0  0  0  0
    8.6261   47.8925  129.0281 C   0  0  0  0  0  0  0  0  0  0  0  0
    9.0759   48.7996  129.9932 C   0  0  0  0  0  0  0  0  0  0  0  0
    8.4783   50.0231  130.1156 C   0  0  0  0  0  0  0  0  0  0  0  0
    6.8617   52.5026  128.3599 O   0  0  0  0  0  0  0  0  0  0  0  0
    6.7846   51.6149  129.3780 N   0  0  0  0  0  0  0  0  0  0  0  0
    6.1554   51.9009  130.4023 O   0  0  0  0  0  0  0  0  0  0  0  0
 24 25  1  0  0  0
 25 26  2  0  0  0
 25 18  1  0  0  0
 18 19  2  0  0  0
 19 20  1  0  0  0
 20 21  2  0  0  0
 21 22  1  0  0  0
 22 23  2  0  0  0
 21  1  1  0  0  0
  1  2  1  0  0  0
  2  3  1  0  0  0
  3  4  1  0  0  0
  4  5  1  0  0  0
  5  6  1  0  0  0
  4  7  1  0  0  0
  7  8  2  0  0  0
  7  9  1  0  0  0
  9 10  2  0  0  0
 10 11  1  0  0  0
 11 12  2  0  0  0
 12 13  1  0  0  0
 13 14  2  0  0  0
 14 15  1  0  0  0
 15 16  2  0  0  0
 16 17  1  0  0  0
 23 18  1  0  0  0
  6  1  1  0  0  0
 17  9  1  0  0  0
 16 11  1  0  0  0
M  CHG 1  24  -1
M  CHG 1  25   1
M  END
> <minimizedAffinity>
11.19550

> <CNNscore>
0.5201764107

> <CNNaffinity>
7.3047857285

> <CNN_VS>
3.7997772694

> <CNNaffinity_variance>
2.1575686932

$$$$
[H]c1c([H])c([N+](=O)[O-])c([H])c([H])c1N1C([H])([H])C([H])([H])N(C(=O)c2nc3c([H])c([H])c([H])c([H])c3s2)C([H])([H])C1([H])[H]


 26 29  0  0  0  0  0  0  0  0999 V2000
    8.7969   46.7057  129.0193 N   0  0  0  0  0  0  0  0  0  0  0  0
   10.0732   46.4779  128.3080 C   0  0  0  0  0  0  0  0  0  0  0  0
   10.5051   45.0304  128.6096 C   0  0  0  0  0  0  0  0  0  0  0  0
   10.4202   44.8300  130.0675 N   0  0  0  0  0  0  0  0  0  0  0  0
    9.1557   45.0610  130.7053 C   0  0  0  0  0  0  0  0  0  0  0  0
    8.1651   45.5905  129.6632 C   0  0  0  0  0  0  0  0  0  0  0  0
   11.5865   44.4216  130.7598 C   0  0  0  0  0  0  0  0  0  0  0  0
   12.6565   44.2382  130.1634 O   0  0  0  0  0  0  0  0  0  0  0  0
   11.5492   44.2073  132.2000 C   0  0  0  0  0  0  0  0  0  0  0  0
   10.8168   44.8538  133.0978 N   0  0  0  0  0  0  0  0  0  0  0  0
   10.8921   44.5516  134.3529 C   0  0  0  0  0  0  0  0  0  0  0  0
   10.1634   45.1694  135.3912 C   0  0  0  0  0  0  0  0  0  0  0  0
   10.3284   44.7633  136.6789 C   0  0  0  0  0  0  0  0  0  0  0  0
   11.1864   43.7565  137.0550 C   0  0  0  0  0  0  0  0  0  0  0  0
   11.9029   43.1449  136.0575 C   0  0  0  0  0  0  0  0  0  0  0  0
   11.7485   43.5480  134.7210 C   0  0  0  0  0  0  0  0  0  0  0  0
   12.3980   43.0995  133.2116 S   0  0  0  0  0  0  0  0  0  0  0  0
    7.2520   50.5576  129.0874 C   0  0  0  0  0  0  0  0  0  0  0  0
    6.6897   49.6127  128.2635 C   0  0  0  0  0  0  0  0  0  0  0  0
    7.1942   48.3463  128.2416 C   0  0  0  0  0  0  0  0  0  0  0  0
    8.2575   47.9981  129.0304 C   0  0  0  0  0  0  0  0  0  0  0  0
    8.8309   48.9591  129.8697 C   0  0  0  0  0  0  0  0  0  0  0  0
    8.3308   50.2313  129.8977 C   0  0  0  0  0  0  0  0  0  0  0  0
    6.8260   52.6577  128.0018 O   0  0  0  0  0  0  0  0  0  0  0  0
    6.7115   51.8680  129.0945 N   0  0  0  0  0  0  0  0  0  0  0  0
    6.1345   52.2873  130.1035 O   0  0  0  0  0  0  0  0  0  0  0  0
 24 25  1  0  0  0
 25 26  2  0  0  0
 25 18  1  0  0  0
 18 19  2  0  0  0
 19 20  1  0  0  0
 20 21  2  0  0  0
 21 22  1  0  0  0
 22 23  2  0  0  0
 21  1  1  0  0  0
  1  2  1  0  0  0
  2  3  1  0  0  0
  3  4  1  0  0  0
  4  5  1  0  0  0
  5  6  1  0  0  0
  4  7  1  0  0  0
  7  8  2  0  0  0
  7  9  1  0  0  0
  9 10  2  0  0  0
 10 11  1  0  0  0
 11 12  2  0  0  0
 12 13  1  0  0  0
 13 14  2  0  0  0
 14 15  1  0  0  0
 15 16  2  0  0  0
 16 17  1  0  0  0
 23 18  1  0  0  0
  6  1  1  0  0  0
 17  9  1  0  0  0
 16 11  1  0  0  0
M  CHG 1  24  -1
M  CHG 1  25   1
M  END
> <minimizedAffinity>
3.94157

> <CNNscore>
0.4965161681

> <CNNaffinity>
7.3061227798

> <CNN_VS>
3.6276080608

> <CNNaffinity_variance>
1.3359540701

$$$$
[H]c1c([H])c([N+](=O)[O-])c([H])c([H])c1N1C([H])([H])C([H])([H])N(C(=O)c2nc3c([H])c([H])c([H])c([H])c3s2)C([H])([H])C1([H])[H]


 26 29  0  0  0  0  0  0  0  0999 V2000
   10.5318   45.4002  133.4349 N   0  0  0  0  0  0  0  0  0  0  0  0
   11.6348   46.3754  133.2968 C   0  0  0  0  0  0  0  0  0  0  0  0
   11.0618   47.7584  133.6599 C   0  0  0  0  0  0  0  0  0  0  0  0
    9.8100   47.9395  132.9031 N   0  0  0  0  0  0  0  0  0  0  0  0
    8.7711   46.9654  133.0790 C   0  0  0  0  0  0  0  0  0  0  0  0
    9.2887   45.8492  133.9922 C   0  0  0  0  0  0  0  0  0  0  0  0
    9.6983   49.0611  132.0453 C   0  0  0  0  0  0  0  0  0  0  0  0
   10.6260   49.8730  131.9254 O   0  0  0  0  0  0  0  0  0  0  0  0
    8.4786   49.2832  131.2807 C   0  0  0  0  0  0  0  0  0  0  0  0
    7.8013   48.3997  130.5589 N   0  0  0  0  0  0  0  0  0  0  0  0
    6.7273   48.7468  129.9277 C   0  0  0  0  0  0  0  0  0  0  0  0
    5.9303   47.8954  129.1336 C   0  0  0  0  0  0  0  0  0  0  0  0
    4.8184   48.3777  128.5162 C   0  0  0  0  0  0  0  0  0  0  0  0
    4.4000   49.6841  128.6142 C   0  0  0  0  0  0  0  0  0  0  0  0
    5.1638   50.5258  129.3827 C   0  0  0  0  0  0  0  0  0  0  0  0
    6.3160   50.0494  130.0293 C   0  0  0  0  0  0  0  0  0  0  0  0
    7.5220   50.6972  131.0428 S   0  0  0  0  0  0  0  0  0  0  0  0
   11.1076   41.4783  132.2041 C   0  0  0  0  0  0  0  0  0  0  0  0
   12.1687   42.3511  132.2161 C   0  0  0  0  0  0  0  0  0  0  0  0
   11.9820   43.6391  132.6224 C   0  0  0  0  0  0  0  0  0  0  0  0
   10.7487   44.0801  133.0204 C   0  0  0  0  0  0  0  0  0  0  0  0
    9.6676   43.1925  133.0088 C   0  0  0  0  0  0  0  0  0  0  0  0
    9.8464   41.8993  132.6029 C   0  0  0  0  0  0  0  0  0  0  0  0
   10.7285   39.6824  130.6544 O   0  0  0  0  0  0  0  0  0  0  0  0
   11.3243   40.1437  131.7781 N   0  0  0  0  0  0  0  0  0  0  0  0
   12.0603   39.4020  132.4377 O   0  0  0  0  0  0  0  0  0  0  0  0
 24 25  1  0  0  0
 25 26  2  0  0  0
 25 18  1  0  0  0
 18 19  2  0  0  0
 19 20  1  0  0  0
 20 21  2  0  0  0
 21 22  1  0  0  0
 22 23  2  0  0  0
 21  1  1  0  0  0
  1  2  1  0  0  0
  2  3  1  0  0  0
  3  4  1  0  0  0
  4  5  1  0  0  0
  5  6  1  0  0  0
  4  7  1  0  0  0
  7  8  2  0  0  0
  7  9  1  0  0  0
  9 10  2  0  0  0
 10 11  1  0  0  0
 11 12  2  0  0  0
 12 13  1  0  0  0
 13 14  2  0  0  0
 14 15  1  0  0  0
 15 16  2  0  0  0
 16 17  1  0  0  0
 23 18  1  0  0  0
  6  1  1  0  0  0
 17  9  1  0  0  0
 16 11  1  0  0  0
M  CHG 1  24  -1
M  CHG 1  25   1
M  END
> <minimizedAffinity>
10.14454

> <CNNscore>
0.4665766060

> <CNNaffinity>
7.0601072311

> <CNN_VS>
3.2940809727

> <CNNaffinity_variance>
1.2395596504

$$$$
[H]c1c([H])c([N+](=O)[O-])c([H])c([H])c1N1C([H])([H])C([H])([H])N(C(=O)c2nc3c([H])c([H])c([H])c([H])c3s2)C([H])([H])C1([H])[H]


 26 29  0  0  0  0  0  0  0  0999 V2000
    9.7509   44.2840  133.2650 N   0  0  0  0  0  0  0  0  0  0  0  0
   10.9401   44.9605  133.8261 C   0  0  0  0  0  0  0  0  0  0  0  0
   10.4521   46.2753  134.4633 C   0  0  0  0  0  0  0  0  0  0  0  0
    9.6009   46.9645  133.4768 N   0  0  0  0  0  0  0  0  0  0  0  0
    8.4569   46.2626  132.9690 C   0  0  0  0  0  0  0  0  0  0  0  0
    8.4568   44.8397  133.5373 C   0  0  0  0  0  0  0  0  0  0  0  0
    9.9552   48.2782  133.0833 C   0  0  0  0  0  0  0  0  0  0  0  0
   10.9558   48.8405  133.5489 O   0  0  0  0  0  0  0  0  0  0  0  0
    9.1416   48.9999  132.1142 C   0  0  0  0  0  0  0  0  0  0  0  0
    8.2229   48.5030  131.2960 N   0  0  0  0  0  0  0  0  0  0  0  0
    7.5772   49.2733  130.4823 C   0  0  0  0  0  0  0  0  0  0  0  0
    6.5835   48.8564  129.5716 C   0  0  0  0  0  0  0  0  0  0  0  0
    5.9719   49.7634  128.7631 C   0  0  0  0  0  0  0  0  0  0  0  0
    6.2638   51.1074  128.7702 C   0  0  0  0  0  0  0  0  0  0  0  0
    7.2281   51.5298  129.6501 C   0  0  0  0  0  0  0  0  0  0  0  0
    7.8725   50.6107  130.4942 C   0  0  0  0  0  0  0  0  0  0  0  0
    9.0791   50.6706  131.6951 S   0  0  0  0  0  0  0  0  0  0  0  0
   10.3507   40.8375  131.0312 C   0  0  0  0  0  0  0  0  0  0  0  0
    9.2903   41.6615  130.7407 C   0  0  0  0  0  0  0  0  0  0  0  0
    9.0931   42.7953  131.4718 C   0  0  0  0  0  0  0  0  0  0  0  0
    9.9378   43.1285  132.4961 C   0  0  0  0  0  0  0  0  0  0  0  0
   11.0178   42.2905  132.7930 C   0  0  0  0  0  0  0  0  0  0  0  0
   11.2227   41.1518  132.0646 C   0  0  0  0  0  0  0  0  0  0  0  0
    9.8818   39.5105  129.0846 O   0  0  0  0  0  0  0  0  0  0  0  0
   10.5370   39.6639  130.2583 N   0  0  0  0  0  0  0  0  0  0  0  0
   11.3011   38.7802  130.6608 O   0  0  0  0  0  0  0  0  0  0  0  0
 24 25  1  0  0  0
 25 26  2  0  0  0
 25 18  1  0  0  0
 18 19  2  0  0  0
 19 20  1  0  0  0
 20 21  2  0  0  0
 21 22  1  0  0  0
 22 23  2  0  0  0
 21  1  1  0  0  0
  1  2  1  0  0  0
  2  3  1  0  0  0
  3  4  1  0  0  0
  4  5  1  0  0  0
  5  6  1  0  0  0
  4  7  1  0  0  0
  7  8  2  0  0  0
  7  9  1  0  0  0
  9 10  2  0  0  0
 10 11  1  0  0  0
 11 12  2  0  0  0
 12 13  1  0  0  0
 13 14  2  0  0  0
 14 15  1  0  0  0
 15 16  2  0  0  0
 16 17  1  0  0  0
 23 18  1  0  0  0
  6  1  1  0  0  0
 17  9  1  0  0  0
 16 11  1  0  0  0
M  CHG 1  24  -1
M  CHG 1  25   1
M  END
> <minimizedAffinity>
11.89877

> <CNNscore>
0.4562395811

> <CNNaffinity>
6.8986234665

> <CNN_VS>
3.1474251747

> <CNNaffinity_variance>
0.9012274742

$$$$
[H]c1c([H])c([N+](=O)[O-])c([H])c([H])c1N1C([H])([H])C([H])([H])N(C(=O)c2nc3c([H])c([H])c([H])c([H])c3s2)C([H])([H])C1([H])[H]


 26 29  0  0  0  0  0  0  0  0999 V2000
    7.1641   48.2075  130.5118 N   0  0  0  0  0  0  0  0  0  0  0  0
    6.2971   47.1174  130.0148 C   0  0  0  0  0  0  0  0  0  0  0  0
    6.6565   45.8535  130.8186 C   0  0  0  0  0  0  0  0  0  0  0  0
    8.1230   45.7069  130.7944 N   0  0  0  0  0  0  0  0  0  0  0  0
    8.9157   46.7940  131.2933 C   0  0  0  0  0  0  0  0  0  0  0  0
    7.9870   47.9564  131.6595 C   0  0  0  0  0  0  0  0  0  0  0  0
    8.6708   44.5054  130.2820 C   0  0  0  0  0  0  0  0  0  0  0  0
    7.9432   43.5964  129.8595 O   0  0  0  0  0  0  0  0  0  0  0  0
   10.1143   44.3141  130.2420 C   0  0  0  0  0  0  0  0  0  0  0  0
   10.9544   44.6766  129.2812 N   0  0  0  0  0  0  0  0  0  0  0  0
   12.2207   44.4359  129.3856 C   0  0  0  0  0  0  0  0  0  0  0  0
   13.2022   44.7747  128.4303 C   0  0  0  0  0  0  0  0  0  0  0  0
   14.5086   44.4681  128.6528 C   0  0  0  0  0  0  0  0  0  0  0  0
   14.9578   43.8278  129.7840 C   0  0  0  0  0  0  0  0  0  0  0  0
   14.0162   43.4912  130.7235 C   0  0  0  0  0  0  0  0  0  0  0  0
   12.6617   43.7980  130.5146 C   0  0  0  0  0  0  0  0  0  0  0  0
   11.2006   43.5842  131.3637 S   0  0  0  0  0  0  0  0  0  0  0  0
    7.1006   51.8230  128.4743 C   0  0  0  0  0  0  0  0  0  0  0  0
    6.8289   51.7952  129.8209 C   0  0  0  0  0  0  0  0  0  0  0  0
    6.8518   50.6089  130.4923 C   0  0  0  0  0  0  0  0  0  0  0  0
    7.1418   49.4385  129.8443 C   0  0  0  0  0  0  0  0  0  0  0  0
    7.4187   49.4653  128.4734 C   0  0  0  0  0  0  0  0  0  0  0  0
    7.3980   50.6509  127.7927 C   0  0  0  0  0  0  0  0  0  0  0  0
    7.5053   53.1564  126.5176 O   0  0  0  0  0  0  0  0  0  0  0  0
    7.0715   53.0675  127.7960 N   0  0  0  0  0  0  0  0  0  0  0  0
    6.6480   54.0723  128.3773 O   0  0  0  0  0  0  0  0  0  0  0  0
 24 25  1  0  0  0
 25 26  2  0  0  0
 25 18  1  0  0  0
 18 19  2  0  0  0
 19 20  1  0  0  0
 20 21  2  0  0  0
 21 22  1  0  0  0
 22 23  2  0  0  0
 21  1  1  0  0  0
  1  2  1  0  0  0
  2  3  1  0  0  0
  3  4  1  0  0  0
  4  5  1  0  0  0
  5  6  1  0  0  0
  4  7  1  0  0  0
  7  8  2  0  0  0
  7  9  1  0  0  0
  9 10  2  0  0  0
 10 11  1  0  0  0
 11 12  2  0  0  0
 12 13  1  0  0  0
 13 14  2  0  0  0
 14 15  1  0  0  0
 15 16  2  0  0  0
 16 17  1  0  0  0
 23 18  1  0  0  0
  6  1  1  0  0  0
 17  9  1  0  0  0
 16 11  1  0  0  0
M  CHG 1  24  -1
M  CHG 1  25   1
M  END
> <minimizedAffinity>
8.32026

> <CNNscore>
0.4370895922

> <CNNaffinity>
6.6726655960

> <CNN_VS>
2.9165527821

> <CNNaffinity_variance>
1.0877375603

$$$$
[H]c1c([H])c([N+](=O)[O-])c([H])c([H])c1N1C([H])([H])C([H])([H])N(C(=O)c2nc3c([H])c([H])c([H])c([H])c3s2)C([H])([H])C1([H])[H]


 26 29  0  0  0  0  0  0  0  0999 V2000
    7.4343   46.4849  129.3718 N   0  0  0  0  0  0  0  0  0  0  0  0
    8.1049   45.8108  128.2392 C   0  0  0  0  0  0  0  0  0  0  0  0
    8.3423   44.3486  128.6615 C   0  0  0  0  0  0  0  0  0  0  0  0
    8.9689   44.3617  129.9955 N   0  0  0  0  0  0  0  0  0  0  0  0
    8.2718   45.0263  131.0593 C   0  0  0  0  0  0  0  0  0  0  0  0
    7.0137   45.6889  130.4884 C   0  0  0  0  0  0  0  0  0  0  0  0
   10.2214   43.7202  130.1572 C   0  0  0  0  0  0  0  0  0  0  0  0
   10.7849   43.1623  129.2057 O   0  0  0  0  0  0  0  0  0  0  0  0
   10.8765   43.7040  131.4580 C   0  0  0  0  0  0  0  0  0  0  0  0
   10.3148   43.5291  132.6472 N   0  0  0  0  0  0  0  0  0  0  0  0
   11.0306   43.5418  133.7241 C   0  0  0  0  0  0  0  0  0  0  0  0
   10.5427   43.3672  135.0364 C   0  0  0  0  0  0  0  0  0  0  0  0
   11.3968   43.4008  136.0945 C   0  0  0  0  0  0  0  0  0  0  0  0
   12.7520   43.6002  135.9722 C   0  0  0  0  0  0  0  0  0  0  0  0
   13.2433   43.7718  134.7027 C   0  0  0  0  0  0  0  0  0  0  0  0
   12.3797   43.7409  133.5955 C   0  0  0  0  0  0  0  0  0  0  0  0
   12.5295   43.8988  131.9061 S   0  0  0  0  0  0  0  0  0  0  0  0
    6.9097   50.5974  129.1713 C   0  0  0  0  0  0  0  0  0  0  0  0
    5.8354   49.7634  128.9757 C   0  0  0  0  0  0  0  0  0  0  0  0
    6.0053   48.4123  129.0436 C   0  0  0  0  0  0  0  0  0  0  0  0
    7.2346   47.8695  129.3044 C   0  0  0  0  0  0  0  0  0  0  0  0
    8.3292   48.7174  129.5038 C   0  0  0  0  0  0  0  0  0  0  0  0
    8.1672   50.0733  129.4376 C   0  0  0  0  0  0  0  0  0  0  0  0
    6.8881   52.6502  127.9239 O   0  0  0  0  0  0  0  0  0  0  0  0
    6.7104   51.9989  129.0964 N   0  0  0  0  0  0  0  0  0  0  0  0
    6.3733   52.6246  130.1072 O   0  0  0  0  0  0  0  0  0  0  0  0
 24 25  1  0  0  0
 25 26  2  0  0  0
 25 18  1  0  0  0
 18 19  2  0  0  0
 19 20  1  0  0  0
 20 21  2  0  0  0
 21 22  1  0  0  0
 22 23  2  0  0  0
 21  1  1  0  0  0
  1  2  1  0  0  0
  2  3  1  0  0  0
  3  4  1  0  0  0
  4  5  1  0  0  0
  5  6  1  0  0  0
  4  7  1  0  0  0
  7  8  2  0  0  0
  7  9  1  0  0  0
  9 10  2  0  0  0
 10 11  1  0  0  0
 11 12  2  0  0  0
 12 13  1  0  0  0
 13 14  2  0  0  0
 14 15  1  0  0  0
 15 16  2  0  0  0
 16 17  1  0  0  0
 23 18  1  0  0  0
  6  1  1  0  0  0
 17  9  1  0  0  0
 16 11  1  0  0  0
M  CHG 1  24  -1
M  CHG 1  25   1
M  END
> <minimizedAffinity>
6.31190

> <CNNscore>
0.4308730960

> <CNNaffinity>
7.1641502380

> <CNN_VS>
3.0868396759

> <CNNaffinity_variance>
1.6022765636

$$$$
[H]c1c([H])c([N+](=O)[O-])c([H])c([H])c1N1C([H])([H])C([H])([H])N(C(=O)c2nc3c([H])c([H])c([H])c([H])c3s2)C([H])([H])C1([H])[H]


 26 29  0  0  0  0  0  0  0  0999 V2000
    8.5968   46.6187  128.8395 N   0  0  0  0  0  0  0  0  0  0  0  0
    9.8239   46.3371  128.0638 C   0  0  0  0  0  0  0  0  0  0  0  0
   10.1767   44.8564  128.3001 C   0  0  0  0  0  0  0  0  0  0  0  0
   10.1433   44.6124  129.7534 N   0  0  0  0  0  0  0  0  0  0  0  0
    8.9249   44.8988  130.4553 C   0  0  0  0  0  0  0  0  0  0  0  0
    7.9249   45.5232  129.4766 C   0  0  0  0  0  0  0  0  0  0  0  0
   11.3108   44.1099  130.3785 C   0  0  0  0  0  0  0  0  0  0  0  0
   12.3400   43.8815  129.7283 O   0  0  0  0  0  0  0  0  0  0  0  0
   11.3232   43.8497  131.8116 C   0  0  0  0  0  0  0  0  0  0  0  0
   12.3413   43.9836  132.6517 N   0  0  0  0  0  0  0  0  0  0  0  0
   12.2014   43.7105  133.9079 C   0  0  0  0  0  0  0  0  0  0  0  0
   13.2105   43.8159  134.8884 C   0  0  0  0  0  0  0  0  0  0  0  0
   12.9423   43.4989  136.1837 C   0  0  0  0  0  0  0  0  0  0  0  0
   11.7124   43.0670  136.6222 C   0  0  0  0  0  0  0  0  0  0  0  0
   10.7195   42.9589  135.6815 C   0  0  0  0  0  0  0  0  0  0  0  0
   10.9741   43.2809  134.3383 C   0  0  0  0  0  0  0  0  0  0  0  0
   10.0899   43.2994  132.8826 S   0  0  0  0  0  0  0  0  0  0  0  0
    7.1885   50.5184  129.0318 C   0  0  0  0  0  0  0  0  0  0  0  0
    8.2854   50.1530  129.7742 C   0  0  0  0  0  0  0  0  0  0  0  0
    8.7510   48.8731  129.7104 C   0  0  0  0  0  0  0  0  0  0  0  0
    8.1407   47.9407  128.9154 C   0  0  0  0  0  0  0  0  0  0  0  0
    7.0238   48.3113  128.1591 C   0  0  0  0  0  0  0  0  0  0  0  0
    6.5508   49.5927  128.2173 C   0  0  0  0  0  0  0  0  0  0  0  0
    6.1725   52.3151  130.2607 O   0  0  0  0  0  0  0  0  0  0  0  0
    6.7215   51.8543  129.1131 N   0  0  0  0  0  0  0  0  0  0  0  0
    6.8177   52.5978  128.1308 O   0  0  0  0  0  0  0  0  0  0  0  0
 24 25  1  0  0  0
 25 26  2  0  0  0
 25 18  1  0  0  0
 18 19  2  0  0  0
 19 20  1  0  0  0
 20 21  2  0  0  0
 21 22  1  0  0  0
 22 23  2  0  0  0
 21  1  1  0  0  0
  1  2  1  0  0  0
  2  3  1  0  0  0
  3  4  1  0  0  0
  4  5  1  0  0  0
  5  6  1  0  0  0
  4  7  1  0  0  0
  7  8  2  0  0  0
  7  9  1  0  0  0
  9 10  2  0  0  0
 10 11  1  0  0  0
 11 12  2  0  0  0
 12 13  1  0  0  0
 13 14  2  0  0  0
 14 15  1  0  0  0
 15 16  2  0  0  0
 16 17  1  0  0  0
 23 18  1  0  0  0
  6  1  1  0  0  0
 17  9  1  0  0  0
 16 11  1  0  0  0
M  CHG 1  24  -1
M  CHG 1  25   1
M  END
> <minimizedAffinity>
9.05092

> <CNNscore>
0.4269029498

> <CNNaffinity>
7.1494302750

> <CNN_VS>
3.0521128178

> <CNNaffinity_variance>
1.2274115086

$$$$
[H]c1c([H])c([N+](=O)[O-])c([H])c([H])c1N1C([H])([H])C([H])([H])N(C(=O)c2nc3c([H])c([H])c([H])c([H])c3s2)C([H])([H])C1([H])[H]


 26 29  0  0  0  0  0  0  0  0999 V2000
    8.4113   48.7985  130.5457 N   0  0  0  0  0  0  0  0  0  0  0  0
    8.9198   48.9016  129.1608 C   0  0  0  0  0  0  0  0  0  0  0  0
    8.4651   47.6312  128.4180 C   0  0  0  0  0  0  0  0  0  0  0  0
    8.8173   46.4702  129.2549 N   0  0  0  0  0  0  0  0  0  0  0  0
    8.2922   46.4194  130.5894 C   0  0  0  0  0  0  0  0  0  0  0  0
    7.5269   47.7168  130.8699 C   0  0  0  0  0  0  0  0  0  0  0  0
    9.6524   45.4694  128.7005 C   0  0  0  0  0  0  0  0  0  0  0  0
   10.0832   45.5610  127.5428 O   0  0  0  0  0  0  0  0  0  0  0  0
   10.0237   44.3022  129.4888 C   0  0  0  0  0  0  0  0  0  0  0  0
   10.8500   44.2527  130.5257 N   0  0  0  0  0  0  0  0  0  0  0  0
   11.0860   43.1338  131.1294 C   0  0  0  0  0  0  0  0  0  0  0  0
   11.9426   42.9636  132.2375 C   0  0  0  0  0  0  0  0  0  0  0  0
   12.1115   41.7320  132.7895 C   0  0  0  0  0  0  0  0  0  0  0  0
   11.4838   40.5988  132.3277 C   0  0  0  0  0  0  0  0  0  0  0  0
   10.6471   40.7465  131.2504 C   0  0  0  0  0  0  0  0  0  0  0  0
   10.4578   42.0089  130.6646 C   0  0  0  0  0  0  0  0  0  0  0  0
    9.5551   42.6477  129.3690 S   0  0  0  0  0  0  0  0  0  0  0  0
    9.6351   51.6100  133.3431 C   0  0  0  0  0  0  0  0  0  0  0  0
    8.9252   52.0132  132.2380 C   0  0  0  0  0  0  0  0  0  0  0  0
    8.5202   51.0908  131.3192 C   0  0  0  0  0  0  0  0  0  0  0  0
    8.8107   49.7627  131.4796 C   0  0  0  0  0  0  0  0  0  0  0  0
    9.5333   49.3509  132.6043 C   0  0  0  0  0  0  0  0  0  0  0  0
    9.9430   50.2694  133.5303 C   0  0  0  0  0  0  0  0  0  0  0  0
   11.3605   52.8589  134.4539 O   0  0  0  0  0  0  0  0  0  0  0  0
   10.0461   52.5858  134.2857 N   0  0  0  0  0  0  0  0  0  0  0  0
    9.1984   53.1869  134.9543 O   0  0  0  0  0  0  0  0  0  0  0  0
 24 25  1  0  0  0
 25 26  2  0  0  0
 25 18  1  0  0  0
 18 19  2  0  0  0
 19 20  1  0  0  0
 20 21  2  0  0  0
 21 22  1  0  0  0
 22 23  2  0  0  0
 21  1  1  0  0  0
  1  2  1  0  0  0
  2  3  1  0  0  0
  3  4  1  0  0  0
  4  5  1  0  0  0
  5  6  1  0  0  0
  4  7  1  0  0  0
  7  8  2  0  0  0
  7  9  1  0  0  0
  9 10  2  0  0  0
 10 11  1  0  0  0
 11 12  2  0  0  0
 12 13  1  0  0  0
 13 14  2  0  0  0
 14 15  1  0  0  0
 15 16  2  0  0  0
 16 17  1  0  0  0
 23 18  1  0  0  0
  6  1  1  0  0  0
 17  9  1  0  0  0
 16 11  1  0  0  0
M  CHG 1  24  -1
M  CHG 1  25   1
M  END
> <minimizedAffinity>
20.42957

> <CNNscore>
0.4090628028

> <CNNaffinity>
6.8293075562

> <CNN_VS>
2.7936155796

> <CNNaffinity_variance>
2.6038455963

$$$$
[H]c1c([H])c([N+](=O)[O-])c([H])c([H])c1N1C([H])([H])C([H])([H])N(C(=O)c2nc3c([H])c([H])c([H])c([H])c3s2)C([H])([H])C1([H])[H]


 26 29  0  0  0  0  0  0  0  0999 V2000
    9.6381   44.8635  128.3114 N   0  0  0  0  0  0  0  0  0  0  0  0
    8.2841   45.4085  128.0738 C   0  0  0  0  0  0  0  0  0  0  0  0
    8.2057   46.7584  128.8116 C   0  0  0  0  0  0  0  0  0  0  0  0
    8.6918   46.5482  130.1871 N   0  0  0  0  0  0  0  0  0  0  0  0
   10.0154   46.0213  130.3592 C   0  0  0  0  0  0  0  0  0  0  0  0
   10.5994   45.6904  128.9819 C   0  0  0  0  0  0  0  0  0  0  0  0
    7.8306   46.8760  131.2628 C   0  0  0  0  0  0  0  0  0  0  0  0
    6.6941   47.3256  131.0618 O   0  0  0  0  0  0  0  0  0  0  0  0
    8.2694   46.6889  132.6391 C   0  0  0  0  0  0  0  0  0  0  0  0
    9.0941   47.4570  133.3392 N   0  0  0  0  0  0  0  0  0  0  0  0
    9.3955   47.1603  134.5613 C   0  0  0  0  0  0  0  0  0  0  0  0
   10.2576   47.9011  135.3972 C   0  0  0  0  0  0  0  0  0  0  0  0
   10.4990   47.4874  136.6703 C   0  0  0  0  0  0  0  0  0  0  0  0
    9.9423   46.3571  137.2214 C   0  0  0  0  0  0  0  0  0  0  0  0
    9.1013   45.6249  136.4219 C   0  0  0  0  0  0  0  0  0  0  0  0
    8.8378   46.0333  135.1042 C   0  0  0  0  0  0  0  0  0  0  0  0
    7.9020   45.4674  133.7983 S   0  0  0  0  0  0  0  0  0  0  0  0
   10.5377   41.0140  127.0464 C   0  0  0  0  0  0  0  0  0  0  0  0
    9.4067   41.6380  126.5781 C   0  0  0  0  0  0  0  0  0  0  0  0
    9.1109   42.9034  126.9906 C   0  0  0  0  0  0  0  0  0  0  0  0
    9.9256   43.5663  127.8684 C   0  0  0  0  0  0  0  0  0  0  0  0
   11.0774   42.9323  128.3460 C   0  0  0  0  0  0  0  0  0  0  0  0
   11.3813   41.6636  127.9372 C   0  0  0  0  0  0  0  0  0  0  0  0
   11.4994   38.8425  127.4072 O   0  0  0  0  0  0  0  0  0  0  0  0
   10.8261   39.6984  126.6043 N   0  0  0  0  0  0  0  0  0  0  0  0
   10.4600   39.3354  125.4813 O   0  0  0  0  0  0  0  0  0  0  0  0
 24 25  1  0  0  0
 25 26  2  0  0  0
 25 18  1  0  0  0
 18 19  2  0  0  0
 19 20  1  0  0  0
 20 21  2  0  0  0
 21 22  1  0  0  0
 22 23  2  0  0  0
 21  1  1  0  0  0
  1  2  1  0  0  0
  2  3  1  0  0  0
  3  4  1  0  0  0
  4  5  1  0  0  0
  5  6  1  0  0  0
  4  7  1  0  0  0
  7  8  2  0  0  0
  7  9  1  0  0  0
  9 10  2  0  0  0
 10 11  1  0  0  0
 11 12  2  0  0  0
 12 13  1  0  0  0
 13 14  2  0  0  0
 14 15  1  0  0  0
 15 16  2  0  0  0
 16 17  1  0  0  0
 23 18  1  0  0  0
  6  1  1  0  0  0
 17  9  1  0  0  0
 16 11  1  0  0  0
M  CHG 1  24  -1
M  CHG 1  25   1
M  END
> <minimizedAffinity>
37.22536

> <CNNscore>
0.4047622979

> <CNNaffinity>
6.7057609558

> <CNN_VS>
2.7142391205

> <CNNaffinity_variance>
4.1806974411

$$$$
[H]ON([H])C(=O)C([H])([H])N(C([H])([H])c1c([H])c([H])c([N+](=O)[O-])c([H])c1[H])S(=O)(=O)c1c([H])c([H])c(-c2c([H])c([H])c([H])c([H])c2[H])c([H])c1[H]


 33 35  0  0  0  0  0  0  0  0999 V2000
    7.2689   49.5502  130.1019 N   0  0  0  0  0  0  0  0  0  0  0  0
    8.7864   49.6448  130.7913 S   0  0  0  0  0  0  0  0  0  0  0  0
    9.8221   49.7994  129.7136 O   0  0  0  0  0  0  0  0  0  0  0  0
    8.8450   50.9463  131.5907 O   0  0  0  0  0  0  0  0  0  0  0  0
    9.3214   48.4082  131.8473 C   0  0  0  0  0  0  0  0  0  0  0  0
   10.4475   47.7005  131.4855 C   0  0  0  0  0  0  0  0  0  0  0  0
   10.9552   46.6783  132.2796 C   0  0  0  0  0  0  0  0  0  0  0  0
   10.3290   46.3493  133.4646 C   0  0  0  0  0  0  0  0  0  0  0  0
    9.2055   47.0723  133.8025 C   0  0  0  0  0  0  0  0  0  0  0  0
    8.7060   48.0694  133.0330 C   0  0  0  0  0  0  0  0  0  0  0  0
   10.8326   45.2810  134.3266 C   0  0  0  0  0  0  0  0  0  0  0  0
   10.2853   44.9535  135.5258 C   0  0  0  0  0  0  0  0  0  0  0  0
   10.8449   43.9249  136.2569 C   0  0  0  0  0  0  0  0  0  0  0  0
   11.9401   43.2119  135.8216 C   0  0  0  0  0  0  0  0  0  0  0  0
   12.4993   43.5466  134.5962 C   0  0  0  0  0  0  0  0  0  0  0  0
   11.9381   44.5756  133.8667 C   0  0  0  0  0  0  0  0  0  0  0  0
    7.3715   50.0753  128.7337 C   0  0  0  0  0  0  0  0  0  0  0  0
    6.8968   53.6466  127.6599 O   0  0  0  0  0  0  0  0  0  0  0  0
    7.2489   52.3224  127.6083 N   0  0  0  0  0  0  0  0  0  0  0  0
    7.0192   51.5019  128.7270 C   0  0  0  0  0  0  0  0  0  0  0  0
    6.4985   52.0049  129.7519 O   0  0  0  0  0  0  0  0  0  0  0  0
    5.9269   53.6729  127.4556 H   0  0  0  0  0  0  0  0  0  0  0  0
    7.6781   52.0407  126.7075 H   0  0  0  0  0  0  0  0  0  0  0  0
    6.6238   48.2703  130.1040 C   0  0  0  0  0  0  0  0  0  0  0  0
    7.5054   47.1167  129.8236 C   0  0  0  0  0  0  0  0  0  0  0  0
    8.4537   47.0820  128.8390 C   0  0  0  0  0  0  0  0  0  0  0  0
    9.2527   45.9939  128.6055 C   0  0  0  0  0  0  0  0  0  0  0  0
    9.1121   44.8746  129.3847 C   0  0  0  0  0  0  0  0  0  0  0  0
    8.1673   44.8626  130.3922 C   0  0  0  0  0  0  0  0  0  0  0  0
    7.3780   45.9726  130.6030 C   0  0  0  0  0  0  0  0  0  0  0  0
    9.9465   43.7170  129.1534 N   0  0  0  0  0  0  0  0  0  0  0  0
   10.9912   43.4399  129.9895 O   0  0  0  0  0  0  0  0  0  0  0  0
    9.7171   42.9724  128.1965 O   0  0  0  0  0  0  0  0  0  0  0  0
 18 19  1  0  0  0
 19 20  1  0  0  0
 20 21  2  0  0  0
 20 17  1  0  0  0
 17  1  1  0  0  0
  1 24  1  0  0  0
 24 25  1  0  0  0
 25 26  2  0  0  0
 26 27  1  0  0  0
 27 28  2  0  0  0
 28 29  1  0  0  0
 29 30  2  0  0  0
 28 31  1  0  0  0
 31 32  1  0  0  0
 31 33  2  0  0  0
  1  2  1  0  0  0
  2  3  2  0  0  0
  2  4  2  0  0  0
  2  5  1  0  0  0
  5  6  2  0  0  0
  6  7  1  0  0  0
  7  8  2  0  0  0
  8  9  1  0  0  0
  9 10  2  0  0  0
  8 11  1  0  0  0
 11 12  2  0  0  0
 12 13  1  0  0  0
 13 14  2  0  0  0
 14 15  1  0  0  0
 15 16  2  0  0  0
 30 25  1  0  0  0
 10  5  1  0  0  0
 16 11  1  0  0  0
 18 22  1  0  0  0
 19 23  1  0  0  0
M  CHG 1  31   1
M  CHG 1  32  -1
M  END
> <minimizedAffinity>
-2.90592

> <CNNscore>
0.6601018310

> <CNNaffinity>
7.6871919632

> <CNN_VS>
5.0743293762

> <CNNaffinity_variance>
0.5538479090

$$$$
[H]ON([H])C(=O)C([H])([H])N(C([H])([H])c1c([H])c([H])c([N+](=O)[O-])c([H])c1[H])S(=O)(=O)c1c([H])c([H])c(-c2c([H])c([H])c([H])c([H])c2[H])c([H])c1[H]


 33 35  0  0  0  0  0  0  0  0999 V2000
    8.1432   48.9279  129.5038 N   0  0  0  0  0  0  0  0  0  0  0  0
    9.3667   49.2492  130.5932 S   0  0  0  0  0  0  0  0  0  0  0  0
   10.5980   49.6914  129.8540 O   0  0  0  0  0  0  0  0  0  0  0  0
    8.9382   50.4635  131.4169 O   0  0  0  0  0  0  0  0  0  0  0  0
    9.8431   48.0499  131.7180 C   0  0  0  0  0  0  0  0  0  0  0  0
    9.0052   47.8037  132.7844 C   0  0  0  0  0  0  0  0  0  0  0  0
    9.3097   46.8489  133.7482 C   0  0  0  0  0  0  0  0  0  0  0  0
   10.4766   46.1186  133.6516 C   0  0  0  0  0  0  0  0  0  0  0  0
   11.2961   46.3845  132.5760 C   0  0  0  0  0  0  0  0  0  0  0  0
   11.0050   47.3135  131.6336 C   0  0  0  0  0  0  0  0  0  0  0  0
   10.8315   45.1060  134.6449 C   0  0  0  0  0  0  0  0  0  0  0  0
   11.6833   44.0756  134.4056 C   0  0  0  0  0  0  0  0  0  0  0  0
   11.9460   43.1766  135.4198 C   0  0  0  0  0  0  0  0  0  0  0  0
   11.3792   43.2790  136.6709 C   0  0  0  0  0  0  0  0  0  0  0  0
   10.5087   44.3321  136.9155 C   0  0  0  0  0  0  0  0  0  0  0  0
   10.2474   45.2299  135.8998 C   0  0  0  0  0  0  0  0  0  0  0  0
    7.7557   50.2030  128.8856 C   0  0  0  0  0  0  0  0  0  0  0  0
    4.0564   49.9909  129.5204 O   0  0  0  0  0  0  0  0  0  0  0  0
    5.3209   49.6216  129.1398 N   0  0  0  0  0  0  0  0  0  0  0  0
    6.3786   50.5387  129.2729 C   0  0  0  0  0  0  0  0  0  0  0  0
    6.1375   51.6800  129.7357 O   0  0  0  0  0  0  0  0  0  0  0  0
    4.0235   49.8565  130.5022 H   0  0  0  0  0  0  0  0  0  0  0  0
    5.3776   48.6563  128.7654 H   0  0  0  0  0  0  0  0  0  0  0  0
    8.3993   47.9377  128.4998 C   0  0  0  0  0  0  0  0  0  0  0  0
    8.7079   46.5844  129.0096 C   0  0  0  0  0  0  0  0  0  0  0  0
    7.8861   45.8510  129.8201 C   0  0  0  0  0  0  0  0  0  0  0  0
    8.2053   44.5993  130.2763 C   0  0  0  0  0  0  0  0  0  0  0  0
    9.4016   44.0349  129.9151 C   0  0  0  0  0  0  0  0  0  0  0  0
   10.2649   44.7376  129.0975 C   0  0  0  0  0  0  0  0  0  0  0  0
    9.9159   45.9952  128.6544 C   0  0  0  0  0  0  0  0  0  0  0  0
    9.7555   42.7149  130.3864 N   0  0  0  0  0  0  0  0  0  0  0  0
   10.8076   42.5454  131.2418 O   0  0  0  0  0  0  0  0  0  0  0  0
    9.1061   41.7329  130.0163 O   0  0  0  0  0  0  0  0  0  0  0  0
 18 19  1  0  0  0
 19 20  1  0  0  0
 20 21  2  0  0  0
 20 17  1  0  0  0
 17  1  1  0  0  0
  1 24  1  0  0  0
 24 25  1  0  0  0
 25 26  2  0  0  0
 26 27  1  0  0  0
 27 28  2  0  0  0
 28 29  1  0  0  0
 29 30  2  0  0  0
 28 31  1  0  0  0
 31 32  1  0  0  0
 31 33  2  0  0  0
  1  2  1  0  0  0
  2  3  2  0  0  0
  2  4  2  0  0  0
  2  5  1  0  0  0
  5  6  2  0  0  0
  6  7  1  0  0  0
  7  8  2  0  0  0
  8  9  1  0  0  0
  9 10  2  0  0  0
  8 11  1  0  0  0
 11 12  2  0  0  0
 12 13  1  0  0  0
 13 14  2  0  0  0
 14 15  1  0  0  0
 15 16  2  0  0  0
 30 25  1  0  0  0
 10  5  1  0  0  0
 16 11  1  0  0  0
 18 22  1  0  0  0
 19 23  1  0  0  0
M  CHG 1  31   1
M  CHG 1  32  -1
M  END
> <minimizedAffinity>
-0.35689

> <CNNscore>
0.6306554675

> <CNNaffinity>
7.7106575966

> <CNN_VS>
4.8627681732

> <CNNaffinity_variance>
0.5585011244

$$$$
[H]ON([H])C(=O)C([H])([H])N(C([H])([H])c1c([H])c([H])c([N+](=O)[O-])c([H])c1[H])S(=O)(=O)c1c([H])c([H])c(-c2c([H])c([H])c([H])c([H])c2[H])c([H])c1[H]


 33 35  0  0  0  0  0  0  0  0999 V2000
    7.3863   48.5590  128.4964 N   0  0  0  0  0  0  0  0  0  0  0  0
    6.5690   47.6951  129.6679 S   0  0  0  0  0  0  0  0  0  0  0  0
    5.5504   48.5798  130.3296 O   0  0  0  0  0  0  0  0  0  0  0  0
    5.7560   46.6145  128.9554 O   0  0  0  0  0  0  0  0  0  0  0  0
    7.4436   46.8998  130.9061 C   0  0  0  0  0  0  0  0  0  0  0  0
    8.2430   47.6714  131.7219 C   0  0  0  0  0  0  0  0  0  0  0  0
    8.9903   47.1131  132.7529 C   0  0  0  0  0  0  0  0  0  0  0  0
    8.9434   45.7529  132.9810 C   0  0  0  0  0  0  0  0  0  0  0  0
    8.1365   45.0049  132.1511 C   0  0  0  0  0  0  0  0  0  0  0  0
    7.4059   45.5430  131.1449 C   0  0  0  0  0  0  0  0  0  0  0  0
    9.7145   45.1288  134.0552 C   0  0  0  0  0  0  0  0  0  0  0  0
    9.5849   45.4528  135.3678 C   0  0  0  0  0  0  0  0  0  0  0  0
   10.3666   44.7975  136.2980 C   0  0  0  0  0  0  0  0  0  0  0  0
   11.2774   43.8239  135.9518 C   0  0  0  0  0  0  0  0  0  0  0  0
   11.4098   43.4929  134.6104 C   0  0  0  0  0  0  0  0  0  0  0  0
   10.6271   44.1495  133.6820 C   0  0  0  0  0  0  0  0  0  0  0  0
    8.0785   49.6678  129.1671 C   0  0  0  0  0  0  0  0  0  0  0  0
    6.5570   52.8456  127.8562 O   0  0  0  0  0  0  0  0  0  0  0  0
    7.3322   51.7159  127.9106 N   0  0  0  0  0  0  0  0  0  0  0  0
    7.2750   50.8923  129.0490 C   0  0  0  0  0  0  0  0  0  0  0  0
    6.5148   51.2150  129.9938 O   0  0  0  0  0  0  0  0  0  0  0  0
    5.6597   52.5396  127.5656 H   0  0  0  0  0  0  0  0  0  0  0  0
    7.9204   51.5739  127.0686 H   0  0  0  0  0  0  0  0  0  0  0  0
    8.2923   47.8335  127.6556 C   0  0  0  0  0  0  0  0  0  0  0  0
    9.1749   46.8750  128.3549 C   0  0  0  0  0  0  0  0  0  0  0  0
   10.1827   47.2251  129.2104 C   0  0  0  0  0  0  0  0  0  0  0  0
   10.9837   46.3094  129.8402 C   0  0  0  0  0  0  0  0  0  0  0  0
   10.7829   44.9716  129.6168 C   0  0  0  0  0  0  0  0  0  0  0  0
    9.7765   44.5694  128.7605 C   0  0  0  0  0  0  0  0  0  0  0  0
    8.9869   45.5143  128.1414 C   0  0  0  0  0  0  0  0  0  0  0  0
   11.6178   43.9906  130.2728 N   0  0  0  0  0  0  0  0  0  0  0  0
   12.9348   44.2586  130.5203 O   0  0  0  0  0  0  0  0  0  0  0  0
   11.1422   42.9038  130.6126 O   0  0  0  0  0  0  0  0  0  0  0  0
 18 19  1  0  0  0
 19 20  1  0  0  0
 20 21  2  0  0  0
 20 17  1  0  0  0
 17  1  1  0  0  0
  1 24  1  0  0  0
 24 25  1  0  0  0
 25 26  2  0  0  0
 26 27  1  0  0  0
 27 28  2  0  0  0
 28 29  1  0  0  0
 29 30  2  0  0  0
 28 31  1  0  0  0
 31 32  1  0  0  0
 31 33  2  0  0  0
  1  2  1  0  0  0
  2  3  2  0  0  0
  2  4  2  0  0  0
  2  5  1  0  0  0
  5  6  2  0  0  0
  6  7  1  0  0  0
  7  8  2  0  0  0
  8  9  1  0  0  0
  9 10  2  0  0  0
  8 11  1  0  0  0
 11 12  2  0  0  0
 12 13  1  0  0  0
 13 14  2  0  0  0
 14 15  1  0  0  0
 15 16  2  0  0  0
 30 25  1  0  0  0
 10  5  1  0  0  0
 16 11  1  0  0  0
 18 22  1  0  0  0
 19 23  1  0  0  0
M  CHG 1  31   1
M  CHG 1  32  -1
M  END
> <minimizedAffinity>
0.08575

> <CNNscore>
0.5532692671

> <CNNaffinity>
7.4975204468

> <CNN_VS>
4.1481475830

> <CNNaffinity_variance>
0.7088204622

$$$$
[H]ON([H])C(=O)C([H])([H])N(C([H])([H])c1c([H])c([H])c([N+](=O)[O-])c([H])c1[H])S(=O)(=O)c1c([H])c([H])c(-c2c([H])c([H])c([H])c([H])c2[H])c([H])c1[H]


 33 35  0  0  0  0  0  0  0  0999 V2000
    8.7603   50.0770  131.1595 N   0  0  0  0  0  0  0  0  0  0  0  0
    9.4579   49.1390  129.9676 S   0  0  0  0  0  0  0  0  0  0  0  0
    8.6257   49.2086  128.7183 O   0  0  0  0  0  0  0  0  0  0  0  0
   10.7906   49.7888  129.5958 O   0  0  0  0  0  0  0  0  0  0  0  0
    9.7964   47.4886  130.2707 C   0  0  0  0  0  0  0  0  0  0  0  0
    8.7286   46.6207  130.3518 C   0  0  0  0  0  0  0  0  0  0  0  0
    8.9065   45.2634  130.5956 C   0  0  0  0  0  0  0  0  0  0  0  0
   10.1777   44.7533  130.7634 C   0  0  0  0  0  0  0  0  0  0  0  0
   11.2271   45.6424  130.6774 C   0  0  0  0  0  0  0  0  0  0  0  0
   11.0603   46.9659  130.4401 C   0  0  0  0  0  0  0  0  0  0  0  0
   10.4054   43.3321  131.0211 C   0  0  0  0  0  0  0  0  0  0  0  0
   11.2866   42.8604  131.9407 C   0  0  0  0  0  0  0  0  0  0  0  0
   11.4200   41.4956  132.0995 C   0  0  0  0  0  0  0  0  0  0  0  0
   10.6947   40.5858  131.3623 C   0  0  0  0  0  0  0  0  0  0  0  0
    9.7942   41.0679  130.4225 C   0  0  0  0  0  0  0  0  0  0  0  0
    9.6624   42.4330  130.2654 C   0  0  0  0  0  0  0  0  0  0  0  0
    7.3292   49.7473  131.2005 C   0  0  0  0  0  0  0  0  0  0  0  0
    6.5105   52.0951  128.3810 O   0  0  0  0  0  0  0  0  0  0  0  0
    7.2012   51.5130  129.4126 N   0  0  0  0  0  0  0  0  0  0  0  0
    6.6387   50.4161  130.0891 C   0  0  0  0  0  0  0  0  0  0  0  0
    5.5107   49.9970  129.7331 O   0  0  0  0  0  0  0  0  0  0  0  0
    6.6965   51.5338  127.5851 H   0  0  0  0  0  0  0  0  0  0  0  0
    8.1140   51.9639  129.6089 H   0  0  0  0  0  0  0  0  0  0  0  0
    9.3321   50.0059  132.4718 C   0  0  0  0  0  0  0  0  0  0  0  0
    9.4791   48.6426  133.0252 C   0  0  0  0  0  0  0  0  0  0  0  0
    8.4388   47.8070  133.3249 C   0  0  0  0  0  0  0  0  0  0  0  0
    8.6116   46.5491  133.8393 C   0  0  0  0  0  0  0  0  0  0  0  0
    9.8804   46.0847  134.0728 C   0  0  0  0  0  0  0  0  0  0  0  0
   10.9631   46.8928  133.7856 C   0  0  0  0  0  0  0  0  0  0  0  0
   10.7574   48.1538  133.2688 C   0  0  0  0  0  0  0  0  0  0  0  0
   10.0824   44.7599  134.6148 N   0  0  0  0  0  0  0  0  0  0  0  0
   11.1201   44.5135  135.4693 O   0  0  0  0  0  0  0  0  0  0  0  0
    9.3155   43.8436  134.3065 O   0  0  0  0  0  0  0  0  0  0  0  0
 18 19  1  0  0  0
 19 20  1  0  0  0
 20 21  2  0  0  0
 20 17  1  0  0  0
 17  1  1  0  0  0
  1 24  1  0  0  0
 24 25  1  0  0  0
 25 26  2  0  0  0
 26 27  1  0  0  0
 27 28  2  0  0  0
 28 29  1  0  0  0
 29 30  2  0  0  0
 28 31  1  0  0  0
 31 32  1  0  0  0
 31 33  2  0  0  0
  1  2  1  0  0  0
  2  3  2  0  0  0
  2  4  2  0  0  0
  2  5  1  0  0  0
  5  6  2  0  0  0
  6  7  1  0  0  0
  7  8  2  0  0  0
  8  9  1  0  0  0
  9 10  2  0  0  0
  8 11  1  0  0  0
 11 12  2  0  0  0
 12 13  1  0  0  0
 13 14  2  0  0  0
 14 15  1  0  0  0
 15 16  2  0  0  0
 30 25  1  0  0  0
 10  5  1  0  0  0
 16 11  1  0  0  0
 18 22  1  0  0  0
 19 23  1  0  0  0
M  CHG 1  31   1
M  CHG 1  32  -1
M  END
> <minimizedAffinity>
0.61225

> <CNNscore>
0.5478833318

> <CNNaffinity>
7.7100806236

> <CNN_VS>
4.2242245674

> <CNNaffinity_variance>
1.1944944859

$$$$
[H]ON([H])C(=O)C([H])([H])N(C([H])([H])c1c([H])c([H])c([N+](=O)[O-])c([H])c1[H])S(=O)(=O)c1c([H])c([H])c(-c2c([H])c([H])c([H])c([H])c2[H])c([H])c1[H]


 33 35  0  0  0  0  0  0  0  0999 V2000
    7.8844   46.5826  129.2944 N   0  0  0  0  0  0  0  0  0  0  0  0
    7.6583   46.5311  130.9476 S   0  0  0  0  0  0  0  0  0  0  0  0
    6.4949   47.4039  131.3257 O   0  0  0  0  0  0  0  0  0  0  0  0
    7.2238   45.1100  131.3055 O   0  0  0  0  0  0  0  0  0  0  0  0
    8.9545   46.9157  131.9975 C   0  0  0  0  0  0  0  0  0  0  0  0
    9.6792   45.8707  132.5291 C   0  0  0  0  0  0  0  0  0  0  0  0
   10.7482   46.0864  133.3916 C   0  0  0  0  0  0  0  0  0  0  0  0
   11.1081   47.3734  133.7360 C   0  0  0  0  0  0  0  0  0  0  0  0
   10.3672   48.3995  133.1907 C   0  0  0  0  0  0  0  0  0  0  0  0
    9.3245   48.1957  132.3497 C   0  0  0  0  0  0  0  0  0  0  0  0
   12.2261   47.6407  134.6397 C   0  0  0  0  0  0  0  0  0  0  0  0
   13.3195   46.8424  134.7492 C   0  0  0  0  0  0  0  0  0  0  0  0
   14.3163   47.1930  135.6375 C   0  0  0  0  0  0  0  0  0  0  0  0
   14.2508   48.3232  136.4222 C   0  0  0  0  0  0  0  0  0  0  0  0
   13.1335   49.1389  136.3102 C   0  0  0  0  0  0  0  0  0  0  0  0
   12.1378   48.7864  135.4214 C   0  0  0  0  0  0  0  0  0  0  0  0
    8.7269   47.7496  128.9997 C   0  0  0  0  0  0  0  0  0  0  0  0
    7.1137   51.1218  129.3975 O   0  0  0  0  0  0  0  0  0  0  0  0
    7.9302   50.0479  129.6429 N   0  0  0  0  0  0  0  0  0  0  0  0
    7.8765   48.9298  128.7918 C   0  0  0  0  0  0  0  0  0  0  0  0
    7.0757   48.9405  127.8257 O   0  0  0  0  0  0  0  0  0  0  0  0
    7.5759   51.6546  128.7007 H   0  0  0  0  0  0  0  0  0  0  0  0
    8.5339   50.1663  130.4777 H   0  0  0  0  0  0  0  0  0  0  0  0
    8.4120   45.4078  128.6654 C   0  0  0  0  0  0  0  0  0  0  0  0
    9.2511   44.5499  129.5294 C   0  0  0  0  0  0  0  0  0  0  0  0
    8.7860   43.4995  130.2714 C   0  0  0  0  0  0  0  0  0  0  0  0
    9.5926   42.7261  131.0639 C   0  0  0  0  0  0  0  0  0  0  0  0
   10.9343   43.0002  131.1312 C   0  0  0  0  0  0  0  0  0  0  0  0
   11.4505   44.0515  130.3991 C   0  0  0  0  0  0  0  0  0  0  0  0
   10.6138   44.8118  129.6108 C   0  0  0  0  0  0  0  0  0  0  0  0
   11.8011   42.1947  131.9617 N   0  0  0  0  0  0  0  0  0  0  0  0
   11.6133   40.8441  132.0509 O   0  0  0  0  0  0  0  0  0  0  0  0
   12.7170   42.7262  132.5952 O   0  0  0  0  0  0  0  0  0  0  0  0
 18 19  1  0  0  0
 19 20  1  0  0  0
 20 21  2  0  0  0
 20 17  1  0  0  0
 17  1  1  0  0  0
  1 24  1  0  0  0
 24 25  1  0  0  0
 25 26  2  0  0  0
 26 27  1  0  0  0
 27 28  2  0  0  0
 28 29  1  0  0  0
 29 30  2  0  0  0
 28 31  1  0  0  0
 31 32  1  0  0  0
 31 33  2  0  0  0
  1  2  1  0  0  0
  2  3  2  0  0  0
  2  4  2  0  0  0
  2  5  1  0  0  0
  5  6  2  0  0  0
  6  7  1  0  0  0
  7  8  2  0  0  0
  8  9  1  0  0  0
  9 10  2  0  0  0
  8 11  1  0  0  0
 11 12  2  0  0  0
 12 13  1  0  0  0
 13 14  2  0  0  0
 14 15  1  0  0  0
 15 16  2  0  0  0
 30 25  1  0  0  0
 10  5  1  0  0  0
 16 11  1  0  0  0
 18 22  1  0  0  0
 19 23  1  0  0  0
M  CHG 1  31   1
M  CHG 1  32  -1
M  END
> <minimizedAffinity>
6.38899

> <CNNscore>
0.5404633284

> <CNNaffinity>
7.6612815857

> <CNN_VS>
4.1406416893

> <CNNaffinity_variance>
1.0742015839

$$$$
[H]ON([H])C(=O)C([H])([H])N(C([H])([H])c1c([H])c([H])c([N+](=O)[O-])c([H])c1[H])S(=O)(=O)c1c([H])c([H])c(-c2c([H])c([H])c([H])c([H])c2[H])c([H])c1[H]


 33 35  0  0  0  0  0  0  0  0999 V2000
    8.2576   49.7055  129.9030 N   0  0  0  0  0  0  0  0  0  0  0  0
    7.6504   48.2476  129.3622 S   0  0  0  0  0  0  0  0  0  0  0  0
    6.2035   48.1279  129.7500 O   0  0  0  0  0  0  0  0  0  0  0  0
    7.6516   48.2903  127.8342 O   0  0  0  0  0  0  0  0  0  0  0  0
    8.4250   46.7858  129.8022 C   0  0  0  0  0  0  0  0  0  0  0  0
    7.7999   45.9857  130.7345 C   0  0  0  0  0  0  0  0  0  0  0  0
    8.3542   44.7814  131.1535 C   0  0  0  0  0  0  0  0  0  0  0  0
    9.5609   44.3593  130.6338 C   0  0  0  0  0  0  0  0  0  0  0  0
   10.1643   45.1777  129.7037 C   0  0  0  0  0  0  0  0  0  0  0  0
    9.6293   46.3523  129.2914 C   0  0  0  0  0  0  0  0  0  0  0  0
   10.1754   43.0992  131.0492 C   0  0  0  0  0  0  0  0  0  0  0  0
   11.0710   42.9914  132.0646 C   0  0  0  0  0  0  0  0  0  0  0  0
   11.5881   41.7484  132.3702 C   0  0  0  0  0  0  0  0  0  0  0  0
   11.2338   40.6061  131.6870 C   0  0  0  0  0  0  0  0  0  0  0  0
   10.3186   40.7163  130.6493 C   0  0  0  0  0  0  0  0  0  0  0  0
    9.8029   41.9602  130.3454 C   0  0  0  0  0  0  0  0  0  0  0  0
    7.4317   50.7718  129.3202 C   0  0  0  0  0  0  0  0  0  0  0  0
    3.7867   49.8523  129.2944 O   0  0  0  0  0  0  0  0  0  0  0  0
    5.0795   50.0044  128.8633 N   0  0  0  0  0  0  0  0  0  0  0  0
    6.0309   50.5836  129.7218 C   0  0  0  0  0  0  0  0  0  0  0  0
    5.6709   50.9525  130.8659 O   0  0  0  0  0  0  0  0  0  0  0  0
    3.7809   49.0187  129.8312 H   0  0  0  0  0  0  0  0  0  0  0  0
    5.2379   49.6675  127.8956 H   0  0  0  0  0  0  0  0  0  0  0  0
    8.3823   49.8815  131.3199 C   0  0  0  0  0  0  0  0  0  0  0  0
    9.1448   48.8280  132.0238 C   0  0  0  0  0  0  0  0  0  0  0  0
   10.4195   48.4463  131.7085 C   0  0  0  0  0  0  0  0  0  0  0  0
   11.0961   47.4634  132.3815 C   0  0  0  0  0  0  0  0  0  0  0  0
   10.4849   46.8179  133.4254 C   0  0  0  0  0  0  0  0  0  0  0  0
    9.1973   47.1692  133.7811 C   0  0  0  0  0  0  0  0  0  0  0  0
    8.5423   48.1621  133.0849 C   0  0  0  0  0  0  0  0  0  0  0  0
   11.1832   45.7784  134.1477 N   0  0  0  0  0  0  0  0  0  0  0  0
   12.4933   45.5053  133.8713 O   0  0  0  0  0  0  0  0  0  0  0  0
   10.5961   45.1318  135.0195 O   0  0  0  0  0  0  0  0  0  0  0  0
 18 19  1  0  0  0
 19 20  1  0  0  0
 20 21  2  0  0  0
 20 17  1  0  0  0
 17  1  1  0  0  0
  1 24  1  0  0  0
 24 25  1  0  0  0
 25 26  2  0  0  0
 26 27  1  0  0  0
 27 28  2  0  0  0
 28 29  1  0  0  0
 29 30  2  0  0  0
 28 31  1  0  0  0
 31 32  1  0  0  0
 31 33  2  0  0  0
  1  2  1  0  0  0
  2  3  2  0  0  0
  2  4  2  0  0  0
  2  5  1  0  0  0
  5  6  2  0  0  0
  6  7  1  0  0  0
  7  8  2  0  0  0
  8  9  1  0  0  0
  9 10  2  0  0  0
  8 11  1  0  0  0
 11 12  2  0  0  0
 12 13  1  0  0  0
 13 14  2  0  0  0
 14 15  1  0  0  0
 15 16  2  0  0  0
 30 25  1  0  0  0
 10  5  1  0  0  0
 16 11  1  0  0  0
 18 22  1  0  0  0
 19 23  1  0  0  0
M  CHG 1  31   1
M  CHG 1  32  -1
M  END
> <minimizedAffinity>
-1.02264

> <CNNscore>
0.5125675201

> <CNNaffinity>
7.6041946411

> <CNN_VS>
3.8976631165

> <CNNaffinity_variance>
0.8198216558

$$$$
[H]ON([H])C(=O)C([H])([H])N(C([H])([H])c1c([H])c([H])c([N+](=O)[O-])c([H])c1[H])S(=O)(=O)c1c([H])c([H])c(-c2c([H])c([H])c([H])c([H])c2[H])c([H])c1[H]


 33 35  0  0  0  0  0  0  0  0999 V2000
    8.3159   50.0944  131.2477 N   0  0  0  0  0  0  0  0  0  0  0  0
    9.1821   49.2213  130.1189 S   0  0  0  0  0  0  0  0  0  0  0  0
    8.8650   49.7249  128.7390 O   0  0  0  0  0  0  0  0  0  0  0  0
   10.6617   49.5417  130.3303 O   0  0  0  0  0  0  0  0  0  0  0  0
    9.0604   47.5141  130.0856 C   0  0  0  0  0  0  0  0  0  0  0  0
   10.2208   46.7933  129.9015 C   0  0  0  0  0  0  0  0  0  0  0  0
   10.2194   45.4035  129.8599 C   0  0  0  0  0  0  0  0  0  0  0  0
    9.0350   44.7100  130.0048 C   0  0  0  0  0  0  0  0  0  0  0  0
    7.8900   45.4548  130.1874 C   0  0  0  0  0  0  0  0  0  0  0  0
    7.8850   46.8091  130.2290 C   0  0  0  0  0  0  0  0  0  0  0  0
    8.9929   43.2489  129.9668 C   0  0  0  0  0  0  0  0  0  0  0  0
    8.1983   42.4927  130.7678 C   0  0  0  0  0  0  0  0  0  0  0  0
    8.2409   41.1184  130.6453 C   0  0  0  0  0  0  0  0  0  0  0  0
    9.0583   40.4763  129.7415 C   0  0  0  0  0  0  0  0  0  0  0  0
    9.8702   41.2491  128.9230 C   0  0  0  0  0  0  0  0  0  0  0  0
    9.8260   42.6233  129.0472 C   0  0  0  0  0  0  0  0  0  0  0  0
    6.8907   49.8189  131.0208 C   0  0  0  0  0  0  0  0  0  0  0  0
    6.6361   52.3008  128.2088 O   0  0  0  0  0  0  0  0  0  0  0  0
    7.1064   51.6725  129.3332 N   0  0  0  0  0  0  0  0  0  0  0  0
    6.4356   50.5377  129.8228 C   0  0  0  0  0  0  0  0  0  0  0  0
    5.4155   50.1277  129.2179 O   0  0  0  0  0  0  0  0  0  0  0  0
    6.9954   51.7825  127.4437 H   0  0  0  0  0  0  0  0  0  0  0  0
    7.9491   52.1206  129.7386 H   0  0  0  0  0  0  0  0  0  0  0  0
    8.6532   49.9035  132.6275 C   0  0  0  0  0  0  0  0  0  0  0  0
    9.2884   48.6078  132.9504 C   0  0  0  0  0  0  0  0  0  0  0  0
    8.6144   47.4894  133.3566 C   0  0  0  0  0  0  0  0  0  0  0  0
    9.2361   46.3045  133.6500 C   0  0  0  0  0  0  0  0  0  0  0  0
   10.5995   46.2126  133.5377 C   0  0  0  0  0  0  0  0  0  0  0  0
   11.3235   47.3162  133.1307 C   0  0  0  0  0  0  0  0  0  0  0  0
   10.6697   48.4948  132.8425 C   0  0  0  0  0  0  0  0  0  0  0  0
   11.2731   44.9704  133.8427 N   0  0  0  0  0  0  0  0  0  0  0  0
   10.9291   44.2522  134.9532 O   0  0  0  0  0  0  0  0  0  0  0  0
   12.1643   44.5528  133.0983 O   0  0  0  0  0  0  0  0  0  0  0  0
 18 19  1  0  0  0
 19 20  1  0  0  0
 20 21  2  0  0  0
 20 17  1  0  0  0
 17  1  1  0  0  0
  1 24  1  0  0  0
 24 25  1  0  0  0
 25 26  2  0  0  0
 26 27  1  0  0  0
 27 28  2  0  0  0
 28 29  1  0  0  0
 29 30  2  0  0  0
 28 31  1  0  0  0
 31 32  1  0  0  0
 31 33  2  0  0  0
  1  2  1  0  0  0
  2  3  2  0  0  0
  2  4  2  0  0  0
  2  5  1  0  0  0
  5  6  2  0  0  0
  6  7  1  0  0  0
  7  8  2  0  0  0
  8  9  1  0  0  0
  9 10  2  0  0  0
  8 11  1  0  0  0
 11 12  2  0  0  0
 12 13  1  0  0  0
 13 14  2  0  0  0
 14 15  1  0  0  0
 15 16  2  0  0  0
 30 25  1  0  0  0
 10  5  1  0  0  0
 16 11  1  0  0  0
 18 22  1  0  0  0
 19 23  1  0  0  0
M  CHG 1  31   1
M  CHG 1  32  -1
M  END
> <minimizedAffinity>
3.09628

> <CNNscore>
0.5106678009

> <CNNaffinity>
7.6457886696

> <CNN_VS>
3.9044580460

> <CNNaffinity_variance>
1.3816211224

$$$$
[H]ON([H])C(=O)C([H])([H])N(C([H])([H])c1c([H])c([H])c([N+](=O)[O-])c([H])c1[H])S(=O)(=O)c1c([H])c([H])c(-c2c([H])c([H])c([H])c([H])c2[H])c([H])c1[H]


 33 35  0  0  0  0  0  0  0  0999 V2000
    9.8207   47.0138  128.3739 N   0  0  0  0  0  0  0  0  0  0  0  0
   10.2068   47.8526  129.7646 S   0  0  0  0  0  0  0  0  0  0  0  0
   11.4284   48.6941  129.5243 O   0  0  0  0  0  0  0  0  0  0  0  0
    9.0792   48.8513  130.0243 O   0  0  0  0  0  0  0  0  0  0  0  0
   10.4450   47.0050  131.2328 C   0  0  0  0  0  0  0  0  0  0  0  0
    9.4434   47.0676  132.1777 C   0  0  0  0  0  0  0  0  0  0  0  0
    9.5488   46.4122  133.3994 C   0  0  0  0  0  0  0  0  0  0  0  0
   10.6781   45.6747  133.6916 C   0  0  0  0  0  0  0  0  0  0  0  0
   11.6639   45.6287  132.7298 C   0  0  0  0  0  0  0  0  0  0  0  0
   11.5671   46.2651  131.5375 C   0  0  0  0  0  0  0  0  0  0  0  0
   10.8258   44.9715  134.9651 C   0  0  0  0  0  0  0  0  0  0  0  0
   10.1929   45.3363  136.1100 C   0  0  0  0  0  0  0  0  0  0  0  0
   10.4073   44.5977  137.2564 C   0  0  0  0  0  0  0  0  0  0  0  0
   11.2395   43.5007  137.2906 C   0  0  0  0  0  0  0  0  0  0  0  0
   11.8863   43.1278  136.1205 C   0  0  0  0  0  0  0  0  0  0  0  0
   11.6704   43.8679  134.9753 C   0  0  0  0  0  0  0  0  0  0  0  0
   10.7249   45.8590  128.2888 C   0  0  0  0  0  0  0  0  0  0  0  0
    9.9508   42.3048  129.2380 O   0  0  0  0  0  0  0  0  0  0  0  0
   10.6426   43.3894  128.7634 N   0  0  0  0  0  0  0  0  0  0  0  0
   10.0358   44.6579  128.7805 C   0  0  0  0  0  0  0  0  0  0  0  0
    8.8686   44.7663  129.2283 O   0  0  0  0  0  0  0  0  0  0  0  0
   10.0659   42.3250  130.2226 H   0  0  0  0  0  0  0  0  0  0  0  0
   11.5910   43.1578  128.4140 H   0  0  0  0  0  0  0  0  0  0  0  0
    8.4580   46.6006  128.2115 C   0  0  0  0  0  0  0  0  0  0  0  0
    7.4422   47.6078  128.5863 C   0  0  0  0  0  0  0  0  0  0  0  0
    7.6229   48.9613  128.5125 C   0  0  0  0  0  0  0  0  0  0  0  0
    6.6594   49.8670  128.8706 C   0  0  0  0  0  0  0  0  0  0  0  0
    5.4476   49.4169  129.3278 C   0  0  0  0  0  0  0  0  0  0  0  0
    5.2185   48.0580  129.4197 C   0  0  0  0  0  0  0  0  0  0  0  0
    6.2073   47.1712  129.0520 C   0  0  0  0  0  0  0  0  0  0  0  0
    4.4187   50.3577  129.7100 N   0  0  0  0  0  0  0  0  0  0  0  0
    4.5270   51.0653  130.8740 O   0  0  0  0  0  0  0  0  0  0  0  0
    3.4354   50.5254  128.9834 O   0  0  0  0  0  0  0  0  0  0  0  0
 18 19  1  0  0  0
 19 20  1  0  0  0
 20 21  2  0  0  0
 20 17  1  0  0  0
 17  1  1  0  0  0
  1 24  1  0  0  0
 24 25  1  0  0  0
 25 26  2  0  0  0
 26 27  1  0  0  0
 27 28  2  0  0  0
 28 29  1  0  0  0
 29 30  2  0  0  0
 28 31  1  0  0  0
 31 32  1  0  0  0
 31 33  2  0  0  0
  1  2  1  0  0  0
  2  3  2  0  0  0
  2  4  2  0  0  0
  2  5  1  0  0  0
  5  6  2  0  0  0
  6  7  1  0  0  0
  7  8  2  0  0  0
  8  9  1  0  0  0
  9 10  2  0  0  0
  8 11  1  0  0  0
 11 12  2  0  0  0
 12 13  1  0  0  0
 13 14  2  0  0  0
 14 15  1  0  0  0
 15 16  2  0  0  0
 30 25  1  0  0  0
 10  5  1  0  0  0
 16 11  1  0  0  0
 18 22  1  0  0  0
 19 23  1  0  0  0
M  CHG 1  31   1
M  CHG 1  32  -1
M  END
> <minimizedAffinity>
9.16422

> <CNNscore>
0.5058743954

> <CNNaffinity>
7.4799737930

> <CNN_VS>
3.7839272022

> <CNNaffinity_variance>
2.3118109703

$$$$
[H]ON([H])C(=O)C([H])([H])N(C([H])([H])c1c([H])c([H])c([N+](=O)[O-])c([H])c1[H])S(=O)(=O)c1c([H])c([H])c(-c2c([H])c([H])c([H])c([H])c2[H])c([H])c1[H]


 33 35  0  0  0  0  0  0  0  0999 V2000
    7.3520   50.0814  129.0468 N   0  0  0  0  0  0  0  0  0  0  0  0
    6.8747   48.5080  128.7578 S   0  0  0  0  0  0  0  0  0  0  0  0
    5.4333   48.3378  129.1469 O   0  0  0  0  0  0  0  0  0  0  0  0
    6.9079   48.2907  127.2451 O   0  0  0  0  0  0  0  0  0  0  0  0
    7.7522   47.2106  129.4486 C   0  0  0  0  0  0  0  0  0  0  0  0
    7.1285   46.4646  130.4255 C   0  0  0  0  0  0  0  0  0  0  0  0
    7.7630   45.3929  131.0438 C   0  0  0  0  0  0  0  0  0  0  0  0
    9.0508   45.0521  130.6833 C   0  0  0  0  0  0  0  0  0  0  0  0
    9.6509   45.8141  129.7043 C   0  0  0  0  0  0  0  0  0  0  0  0
    9.0380   46.8594  129.0982 C   0  0  0  0  0  0  0  0  0  0  0  0
    9.7511   43.9320  131.3102 C   0  0  0  0  0  0  0  0  0  0  0  0
    9.2212   43.1638  132.2970 C   0  0  0  0  0  0  0  0  0  0  0  0
    9.9747   42.1304  132.8167 C   0  0  0  0  0  0  0  0  0  0  0  0
   11.2475   41.8422  132.3760 C   0  0  0  0  0  0  0  0  0  0  0  0
   11.7890   42.6273  131.3675 C   0  0  0  0  0  0  0  0  0  0  0  0
   11.0337   43.6601  130.8494 C   0  0  0  0  0  0  0  0  0  0  0  0
    6.3936   50.9655  128.3698 C   0  0  0  0  0  0  0  0  0  0  0  0
    7.7942   54.2790  127.2783 O   0  0  0  0  0  0  0  0  0  0  0  0
    7.3295   52.9909  127.2069 N   0  0  0  0  0  0  0  0  0  0  0  0
    6.9037   52.3435  128.3803 C   0  0  0  0  0  0  0  0  0  0  0  0
    6.9632   52.9621  129.4705 O   0  0  0  0  0  0  0  0  0  0  0  0
    6.9865   54.8542  127.2792 H   0  0  0  0  0  0  0  0  0  0  0  0
    7.3438   52.5959  126.2482 H   0  0  0  0  0  0  0  0  0  0  0  0
    7.5240   50.4764  130.4137 C   0  0  0  0  0  0  0  0  0  0  0  0
    8.3975   49.5980  131.2213 C   0  0  0  0  0  0  0  0  0  0  0  0
    7.9956   48.9065  132.3305 C   0  0  0  0  0  0  0  0  0  0  0  0
    8.8335   48.1024  133.0571 C   0  0  0  0  0  0  0  0  0  0  0  0
   10.1426   47.9695  132.6716 C   0  0  0  0  0  0  0  0  0  0  0  0
   10.5948   48.6486  131.5572 C   0  0  0  0  0  0  0  0  0  0  0  0
    9.7279   49.4504  130.8463 C   0  0  0  0  0  0  0  0  0  0  0  0
   11.0415   47.1251  133.4258 N   0  0  0  0  0  0  0  0  0  0  0  0
   11.9241   46.3052  132.7806 O   0  0  0  0  0  0  0  0  0  0  0  0
   11.0146   47.1420  134.6594 O   0  0  0  0  0  0  0  0  0  0  0  0
 18 19  1  0  0  0
 19 20  1  0  0  0
 20 21  2  0  0  0
 20 17  1  0  0  0
 17  1  1  0  0  0
  1 24  1  0  0  0
 24 25  1  0  0  0
 25 26  2  0  0  0
 26 27  1  0  0  0
 27 28  2  0  0  0
 28 29  1  0  0  0
 29 30  2  0  0  0
 28 31  1  0  0  0
 31 32  1  0  0  0
 31 33  2  0  0  0
  1  2  1  0  0  0
  2  3  2  0  0  0
  2  4  2  0  0  0
  2  5  1  0  0  0
  5  6  2  0  0  0
  6  7  1  0  0  0
  7  8  2  0  0  0
  8  9  1  0  0  0
  9 10  2  0  0  0
  8 11  1  0  0  0
 11 12  2  0  0  0
 12 13  1  0  0  0
 13 14  2  0  0  0
 14 15  1  0  0  0
 15 16  2  0  0  0
 30 25  1  0  0  0
 10  5  1  0  0  0
 16 11  1  0  0  0
 18 22  1  0  0  0
 19 23  1  0  0  0
M  CHG 1  31   1
M  CHG 1  32  -1
M  END
> <minimizedAffinity>
-2.69303

> <CNNscore>
0.4853528142

> <CNNaffinity>
7.3906264305

> <CNN_VS>
3.5870614052

> <CNNaffinity_variance>
0.6730567217

$$$$
[H]c1nc(N([H])c2c([H])c(OC([H])([H])[H])c(OC([H])([H])[H])c(OC([H])([H])[H])c2[H])nc(N([H])c2nc3c(c([H])c2[H])OC(C([H])([H])[H])(C([H])([H])[H])C(=O)N3[H])c1Cl


 37 40  0  0  0  0  0  0  0  0999 V2000
   10.6505   47.4250  129.5625 C   0  0  0  0  0  0  0  0  0  0  0  0
   10.9051   47.0795  128.3102 N   0  0  0  0  0  0  0  0  0  0  0  0
   11.5199   45.9646  127.8975 C   0  0  0  0  0  0  0  0  0  0  0  0
   11.9324   45.0826  128.8675 C   0  0  0  0  0  0  0  0  0  0  0  0
   12.7451   43.5901  128.4956 Cl  0  0  0  0  0  0  0  0  0  0  0  0
   11.7011   45.3746  130.2085 C   0  0  0  0  0  0  0  0  0  0  0  0
   11.0789   46.5165  130.5006 N   0  0  0  0  0  0  0  0  0  0  0  0
   10.0063   48.5895  130.0271 N   0  0  0  0  0  0  0  0  0  0  0  0
   10.5842   49.1709  130.7178 H   0  0  0  0  0  0  0  0  0  0  0  0
    6.9807   50.6682  129.2826 C   0  0  0  0  0  0  0  0  0  0  0  0
    8.2929   50.3000  129.6288 C   0  0  0  0  0  0  0  0  0  0  0  0
    8.7188   49.0265  129.6741 C   0  0  0  0  0  0  0  0  0  0  0  0
    7.7824   48.0320  129.3533 C   0  0  0  0  0  0  0  0  0  0  0  0
    6.4994   48.3724  129.0134 C   0  0  0  0  0  0  0  0  0  0  0  0
    6.0696   49.6909  128.9701 C   0  0  0  0  0  0  0  0  0  0  0  0
    7.0026   52.7960  128.1603 C   0  0  0  0  0  0  0  0  0  0  0  0
    6.5916   51.9983  129.2515 O   0  0  0  0  0  0  0  0  0  0  0  0
    5.5801   47.3943  128.6982 O   0  0  0  0  0  0  0  0  0  0  0  0
    4.9899   46.6529  129.7452 C   0  0  0  0  0  0  0  0  0  0  0  0
    4.7686   50.0365  128.6257 O   0  0  0  0  0  0  0  0  0  0  0  0
    3.7583   49.8946  129.5921 C   0  0  0  0  0  0  0  0  0  0  0  0
   12.1058   44.5009  131.2388 N   0  0  0  0  0  0  0  0  0  0  0  0
   13.1144   44.2476  131.3457 H   0  0  0  0  0  0  0  0  0  0  0  0
   11.1462   43.9626  132.1336 C   0  0  0  0  0  0  0  0  0  0  0  0
   11.2985   44.1362  133.5189 C   0  0  0  0  0  0  0  0  0  0  0  0
   10.3534   43.6042  134.3655 C   0  0  0  0  0  0  0  0  0  0  0  0
    9.2641   42.9071  133.8924 C   0  0  0  0  0  0  0  0  0  0  0  0
    8.3036   42.3651  134.7309 O   0  0  0  0  0  0  0  0  0  0  0  0
    7.4101   41.3500  134.3161 C   0  0  0  0  0  0  0  0  0  0  0  0
    6.1155   41.4474  135.1160 C   0  0  0  0  0  0  0  0  0  0  0  0
    8.0605   40.0080  134.4929 C   0  0  0  0  0  0  0  0  0  0  0  0
    7.0363   41.4800  132.8797 C   0  0  0  0  0  0  0  0  0  0  0  0
    5.8941   41.1126  132.4734 O   0  0  0  0  0  0  0  0  0  0  0  0
    8.0108   42.0280  132.0047 N   0  0  0  0  0  0  0  0  0  0  0  0
    9.1318   42.7467  132.5211 C   0  0  0  0  0  0  0  0  0  0  0  0
   10.0706   43.2776  131.7215 N   0  0  0  0  0  0  0  0  0  0  0  0
    7.9056   41.9045  130.9838 H   0  0  0  0  0  0  0  0  0  0  0  0
 16 17  1  0  0  0
 17 10  1  0  0  0
 10 11  2  0  0  0
 11 12  1  0  0  0
 12  8  1  0  0  0
  8  1  1  0  0  0
  1  2  2  0  0  0
  2  3  1  0  0  0
  3  4  2  0  0  0
  4  5  1  0  0  0
  4  6  1  0  0  0
  6 22  1  0  0  0
 22 24  1  0  0  0
 24 25  2  0  0  0
 25 26  1  0  0  0
 26 27  2  0  0  0
 27 28  1  0  0  0
 28 29  1  0  0  0
 29 30  1  0  0  0
 29 31  1  0  0  0
 29 32  1  0  0  0
 32 33  2  0  0  0
 32 34  1  0  0  0
 34 35  1  0  0  0
 35 36  2  0  0  0
  6  7  2  0  0  0
 12 13  2  0  0  0
 13 14  1  0  0  0
 14 18  1  0  0  0
 18 19  1  0  0  0
 14 15  2  0  0  0
 15 20  1  0  0  0
 20 21  1  0  0  0
 15 10  1  0  0  0
  7  1  1  0  0  0
 36 24  1  0  0  0
 35 27  1  0  0  0
  8  9  1  0  0  0
 22 23  1  0  0  0
 34 37  1  0  0  0
M  END
> <minimizedAffinity>
22.11518

> <CNNscore>
0.3472705781

> <CNNaffinity>
7.3483214378

> <CNN_VS>
2.5518558025

> <CNNaffinity_variance>
0.7680748701

$$$$
[H]c1nc(N([H])c2c([H])c(OC([H])([H])[H])c(OC([H])([H])[H])c(OC([H])([H])[H])c2[H])nc(N([H])c2nc3c(c([H])c2[H])OC(C([H])([H])[H])(C([H])([H])[H])C(=O)N3[H])c1Cl


 37 40  0  0  0  0  0  0  0  0999 V2000
   10.0131   42.4167  130.3563 C   0  0  0  0  0  0  0  0  0  0  0  0
    9.7345   41.5517  129.3937 N   0  0  0  0  0  0  0  0  0  0  0  0
    9.6206   41.8185  128.0871 C   0  0  0  0  0  0  0  0  0  0  0  0
    9.8110   43.1225  127.6966 C   0  0  0  0  0  0  0  0  0  0  0  0
    9.6976   43.6318  126.0371 Cl  0  0  0  0  0  0  0  0  0  0  0  0
   10.1077   44.0917  128.6503 C   0  0  0  0  0  0  0  0  0  0  0  0
   10.1960   43.7083  129.9237 N   0  0  0  0  0  0  0  0  0  0  0  0
   10.1394   42.1661  131.7376 N   0  0  0  0  0  0  0  0  0  0  0  0
   10.2970   41.1362  131.9893 H   0  0  0  0  0  0  0  0  0  0  0  0
    9.0402   44.8749  134.0795 C   0  0  0  0  0  0  0  0  0  0  0  0
    9.0342   43.9269  133.0410 C   0  0  0  0  0  0  0  0  0  0  0  0
   10.0729   43.1198  132.7668 C   0  0  0  0  0  0  0  0  0  0  0  0
   11.2108   43.2521  133.5771 C   0  0  0  0  0  0  0  0  0  0  0  0
   11.2344   44.1705  134.5937 C   0  0  0  0  0  0  0  0  0  0  0  0
   10.1562   44.9996  134.8681 C   0  0  0  0  0  0  0  0  0  0  0  0
    7.5833   46.6434  133.3465 C   0  0  0  0  0  0  0  0  0  0  0  0
    7.9412   45.6845  134.3203 O   0  0  0  0  0  0  0  0  0  0  0  0
   12.3531   44.2996  135.3893 O   0  0  0  0  0  0  0  0  0  0  0  0
   13.6225   44.0492  134.8235 C   0  0  0  0  0  0  0  0  0  0  0  0
   10.1798   45.9311  135.8987 O   0  0  0  0  0  0  0  0  0  0  0  0
    9.2213   46.9587  135.8967 C   0  0  0  0  0  0  0  0  0  0  0  0
   10.3113   45.4419  128.2978 N   0  0  0  0  0  0  0  0  0  0  0  0
   11.1819   45.7269  127.7939 H   0  0  0  0  0  0  0  0  0  0  0  0
    9.3361   46.4180  128.6255 C   0  0  0  0  0  0  0  0  0  0  0  0
    8.0002   46.2404  128.2301 C   0  0  0  0  0  0  0  0  0  0  0  0
    7.0735   47.2021  128.5607 C   0  0  0  0  0  0  0  0  0  0  0  0
    7.4196   48.3323  129.2673 C   0  0  0  0  0  0  0  0  0  0  0  0
    6.4991   49.3101  129.6081 O   0  0  0  0  0  0  0  0  0  0  0  0
    6.8777   50.6202  129.9839 C   0  0  0  0  0  0  0  0  0  0  0  0
    5.8279   51.2093  130.9199 C   0  0  0  0  0  0  0  0  0  0  0  0
    7.0465   51.4646  128.7536 C   0  0  0  0  0  0  0  0  0  0  0  0
    8.1712   50.6433  130.7231 C   0  0  0  0  0  0  0  0  0  0  0  0
    8.3907   51.5167  131.6141 O   0  0  0  0  0  0  0  0  0  0  0  0
    9.1287   49.6521  130.3825 N   0  0  0  0  0  0  0  0  0  0  0  0
    8.7439   48.4890  129.6485 C   0  0  0  0  0  0  0  0  0  0  0  0
    9.6241   47.5330  129.3109 N   0  0  0  0  0  0  0  0  0  0  0  0
   10.1140   49.7756  130.6700 H   0  0  0  0  0  0  0  0  0  0  0  0
 16 17  1  0  0  0
 17 10  1  0  0  0
 10 11  2  0  0  0
 11 12  1  0  0  0
 12  8  1  0  0  0
  8  1  1  0  0  0
  1  2  2  0  0  0
  2  3  1  0  0  0
  3  4  2  0  0  0
  4  5  1  0  0  0
  4  6  1  0  0  0
  6 22  1  0  0  0
 22 24  1  0  0  0
 24 25  2  0  0  0
 25 26  1  0  0  0
 26 27  2  0  0  0
 27 28  1  0  0  0
 28 29  1  0  0  0
 29 30  1  0  0  0
 29 31  1  0  0  0
 29 32  1  0  0  0
 32 33  2  0  0  0
 32 34  1  0  0  0
 34 35  1  0  0  0
 35 36  2  0  0  0
  6  7  2  0  0  0
 12 13  2  0  0  0
 13 14  1  0  0  0
 14 18  1  0  0  0
 18 19  1  0  0  0
 14 15  2  0  0  0
 15 20  1  0  0  0
 20 21  1  0  0  0
 15 10  1  0  0  0
  7  1  1  0  0  0
 36 24  1  0  0  0
 35 27  1  0  0  0
  8  9  1  0  0  0
 22 23  1  0  0  0
 34 37  1  0  0  0
M  END
> <minimizedAffinity>
11.46323

> <CNNscore>
0.3330723047

> <CNNaffinity>
7.4395933151

> <CNN_VS>
2.4779224396

> <CNNaffinity_variance>
0.4333285689

$$$$
[H]c1nc(N([H])c2c([H])c(OC([H])([H])[H])c(OC([H])([H])[H])c(OC([H])([H])[H])c2[H])nc(N([H])c2nc3c(c([H])c2[H])OC(C([H])([H])[H])(C([H])([H])[H])C(=O)N3[H])c1Cl


 37 40  0  0  0  0  0  0  0  0999 V2000
    9.6300   47.1549  128.4062 C   0  0  0  0  0  0  0  0  0  0  0  0
    9.4905   47.0853  127.0916 N   0  0  0  0  0  0  0  0  0  0  0  0
   10.0856   46.2129  126.2693 C   0  0  0  0  0  0  0  0  0  0  0  0
   10.9300   45.2912  126.8409 C   0  0  0  0  0  0  0  0  0  0  0  0
   11.7786   44.0912  125.9104 Cl  0  0  0  0  0  0  0  0  0  0  0  0
   11.1293   45.2997  128.2183 C   0  0  0  0  0  0  0  0  0  0  0  0
   10.4822   46.2165  128.9373 N   0  0  0  0  0  0  0  0  0  0  0  0
    9.0180   48.0601  129.2966 N   0  0  0  0  0  0  0  0  0  0  0  0
    8.3886   48.7889  128.8257 H   0  0  0  0  0  0  0  0  0  0  0  0
    9.7211   49.0764  132.8325 C   0  0  0  0  0  0  0  0  0  0  0  0
    9.5780   49.1259  131.4345 C   0  0  0  0  0  0  0  0  0  0  0  0
    9.1661   48.0837  130.6932 C   0  0  0  0  0  0  0  0  0  0  0  0
    8.8694   46.8955  131.3780 C   0  0  0  0  0  0  0  0  0  0  0  0
    9.0029   46.8290  132.7401 C   0  0  0  0  0  0  0  0  0  0  0  0
    9.4297   47.9113  133.4962 C   0  0  0  0  0  0  0  0  0  0  0  0
    9.6570   51.4546  133.1894 C   0  0  0  0  0  0  0  0  0  0  0  0
   10.1507   50.1812  133.5509 O   0  0  0  0  0  0  0  0  0  0  0  0
    8.7111   45.6608  133.4118 O   0  0  0  0  0  0  0  0  0  0  0  0
    7.3620   45.3637  133.7048 C   0  0  0  0  0  0  0  0  0  0  0  0
    9.5654   47.8442  134.8774 O   0  0  0  0  0  0  0  0  0  0  0  0
    8.4092   47.9365  135.6706 C   0  0  0  0  0  0  0  0  0  0  0  0
   11.9858   44.3743  128.8499 N   0  0  0  0  0  0  0  0  0  0  0  0
   12.8552   44.0507  128.3679 H   0  0  0  0  0  0  0  0  0  0  0  0
   11.6710   43.8794  130.1410 C   0  0  0  0  0  0  0  0  0  0  0  0
   12.6729   43.7744  131.1196 C   0  0  0  0  0  0  0  0  0  0  0  0
   12.3413   43.2911  132.3643 C   0  0  0  0  0  0  0  0  0  0  0  0
   11.0559   42.9081  132.6764 C   0  0  0  0  0  0  0  0  0  0  0  0
   10.7052   42.4195  133.9245 O   0  0  0  0  0  0  0  0  0  0  0  0
    9.5200   41.6818  134.1525 C   0  0  0  0  0  0  0  0  0  0  0  0
    9.0604   41.8812  135.5927 C   0  0  0  0  0  0  0  0  0  0  0  0
    9.7688   40.2309  133.8555 C   0  0  0  0  0  0  0  0  0  0  0  0
    8.3993   42.1312  133.2796 C   0  0  0  0  0  0  0  0  0  0  0  0
    7.2000   42.0648  133.6823 O   0  0  0  0  0  0  0  0  0  0  0  0
    8.7398   42.6292  131.9945 N   0  0  0  0  0  0  0  0  0  0  0  0
   10.0809   43.0195  131.6962 C   0  0  0  0  0  0  0  0  0  0  0  0
   10.4361   43.4946  130.4918 N   0  0  0  0  0  0  0  0  0  0  0  0
    8.0079   42.7095  131.2690 H   0  0  0  0  0  0  0  0  0  0  0  0
 16 17  1  0  0  0
 17 10  1  0  0  0
 10 11  2  0  0  0
 11 12  1  0  0  0
 12  8  1  0  0  0
  8  1  1  0  0  0
  1  2  2  0  0  0
  2  3  1  0  0  0
  3  4  2  0  0  0
  4  5  1  0  0  0
  4  6  1  0  0  0
  6 22  1  0  0  0
 22 24  1  0  0  0
 24 25  2  0  0  0
 25 26  1  0  0  0
 26 27  2  0  0  0
 27 28  1  0  0  0
 28 29  1  0  0  0
 29 30  1  0  0  0
 29 31  1  0  0  0
 29 32  1  0  0  0
 32 33  2  0  0  0
 32 34  1  0  0  0
 34 35  1  0  0  0
 35 36  2  0  0  0
  6  7  2  0  0  0
 12 13  2  0  0  0
 13 14  1  0  0  0
 14 18  1  0  0  0
 18 19  1  0  0  0
 14 15  2  0  0  0
 15 20  1  0  0  0
 20 21  1  0  0  0
 15 10  1  0  0  0
  7  1  1  0  0  0
 36 24  1  0  0  0
 35 27  1  0  0  0
  8  9  1  0  0  0
 22 23  1  0  0  0
 34 37  1  0  0  0
M  END
> <minimizedAffinity>
25.33211

> <CNNscore>
0.2966547608

> <CNNaffinity>
7.1656141281

> <CNN_VS>
2.1257135868

> <CNNaffinity_variance>
0.2769228518

$$$$
[H]c1nc(N([H])c2c([H])c(OC([H])([H])[H])c(OC([H])([H])[H])c(OC([H])([H])[H])c2[H])nc(N([H])c2nc3c(c([H])c2[H])OC(C([H])([H])[H])(C([H])([H])[H])C(=O)N3[H])c1Cl


 37 40  0  0  0  0  0  0  0  0999 V2000
   10.0562   45.4897  127.9900 C   0  0  0  0  0  0  0  0  0  0  0  0
    9.8599   44.8286  126.8600 N   0  0  0  0  0  0  0  0  0  0  0  0
    9.8345   43.4994  126.7053 C   0  0  0  0  0  0  0  0  0  0  0  0
   10.0317   42.7352  127.8306 C   0  0  0  0  0  0  0  0  0  0  0  0
   10.0280   40.9960  127.7972 Cl  0  0  0  0  0  0  0  0  0  0  0  0
   10.2449   43.3567  129.0575 C   0  0  0  0  0  0  0  0  0  0  0  0
   10.2491   44.6890  129.0903 N   0  0  0  0  0  0  0  0  0  0  0  0
   10.0882   46.8855  128.1838 N   0  0  0  0  0  0  0  0  0  0  0  0
   10.8763   47.3885  127.6596 H   0  0  0  0  0  0  0  0  0  0  0  0
    8.5844   49.0268  130.8640 C   0  0  0  0  0  0  0  0  0  0  0  0
    9.5214   48.3066  130.1021 C   0  0  0  0  0  0  0  0  0  0  0  0
    9.2080   47.6364  128.9805 C   0  0  0  0  0  0  0  0  0  0  0  0
    7.8664   47.6756  128.5715 C   0  0  0  0  0  0  0  0  0  0  0  0
    6.9396   48.3726  129.3014 C   0  0  0  0  0  0  0  0  0  0  0  0
    7.2739   49.0611  130.4588 C   0  0  0  0  0  0  0  0  0  0  0  0
    9.9512   50.7035  131.9167 C   0  0  0  0  0  0  0  0  0  0  0  0
    8.9601   49.7016  132.0151 O   0  0  0  0  0  0  0  0  0  0  0  0
    5.6216   48.4104  128.8984 O   0  0  0  0  0  0  0  0  0  0  0  0
    5.1338   49.5809  128.2770 C   0  0  0  0  0  0  0  0  0  0  0  0
    6.3344   49.7678  131.1994 O   0  0  0  0  0  0  0  0  0  0  0  0
    5.3868   50.5462  130.5135 C   0  0  0  0  0  0  0  0  0  0  0  0
   10.4520   42.6151  130.2390 N   0  0  0  0  0  0  0  0  0  0  0  0
   10.6935   41.5993  130.1852 H   0  0  0  0  0  0  0  0  0  0  0  0
   10.3332   43.2443  131.5044 C   0  0  0  0  0  0  0  0  0  0  0  0
   10.4491   42.4875  132.6818 C   0  0  0  0  0  0  0  0  0  0  0  0
   10.3300   43.1220  133.8968 C   0  0  0  0  0  0  0  0  0  0  0  0
   10.1005   44.4767  133.9897 C   0  0  0  0  0  0  0  0  0  0  0  0
    9.9780   45.1310  135.2048 O   0  0  0  0  0  0  0  0  0  0  0  0
    9.3802   46.4069  135.3304 C   0  0  0  0  0  0  0  0  0  0  0  0
    9.9761   47.1371  136.5291 C   0  0  0  0  0  0  0  0  0  0  0  0
    7.8932   46.2511  135.4709 C   0  0  0  0  0  0  0  0  0  0  0  0
    9.6293   47.2661  134.1389 C   0  0  0  0  0  0  0  0  0  0  0  0
    9.7251   48.5237  134.2578 O   0  0  0  0  0  0  0  0  0  0  0  0
    9.7515   46.6129  132.8844 N   0  0  0  0  0  0  0  0  0  0  0  0
    9.9892   45.2063  132.8154 C   0  0  0  0  0  0  0  0  0  0  0  0
   10.1102   44.5582  131.6458 N   0  0  0  0  0  0  0  0  0  0  0  0
    9.6675   47.1631  132.0132 H   0  0  0  0  0  0  0  0  0  0  0  0
 16 17  1  0  0  0
 17 10  1  0  0  0
 10 11  2  0  0  0
 11 12  1  0  0  0
 12  8  1  0  0  0
  8  1  1  0  0  0
  1  2  2  0  0  0
  2  3  1  0  0  0
  3  4  2  0  0  0
  4  5  1  0  0  0
  4  6  1  0  0  0
  6 22  1  0  0  0
 22 24  1  0  0  0
 24 25  2  0  0  0
 25 26  1  0  0  0
 26 27  2  0  0  0
 27 28  1  0  0  0
 28 29  1  0  0  0
 29 30  1  0  0  0
 29 31  1  0  0  0
 29 32  1  0  0  0
 32 33  2  0  0  0
 32 34  1  0  0  0
 34 35  1  0  0  0
 35 36  2  0  0  0
  6  7  2  0  0  0
 12 13  2  0  0  0
 13 14  1  0  0  0
 14 18  1  0  0  0
 18 19  1  0  0  0
 14 15  2  0  0  0
 15 20  1  0  0  0
 20 21  1  0  0  0
 15 10  1  0  0  0
  7  1  1  0  0  0
 36 24  1  0  0  0
 35 27  1  0  0  0
  8  9  1  0  0  0
 22 23  1  0  0  0
 34 37  1  0  0  0
M  END
> <minimizedAffinity>
10.29704

> <CNNscore>
0.2647253871

> <CNNaffinity>
7.3350343704

> <CNN_VS>
1.9417698383

> <CNNaffinity_variance>
0.2554286122

$$$$
[H]c1nc(N([H])c2c([H])c(OC([H])([H])[H])c(OC([H])([H])[H])c(OC([H])([H])[H])c2[H])nc(N([H])c2nc3c(c([H])c2[H])OC(C([H])([H])[H])(C([H])([H])[H])C(=O)N3[H])c1Cl


 37 40  0  0  0  0  0  0  0  0999 V2000
    8.0788   45.0113  128.5363 C   0  0  0  0  0  0  0  0  0  0  0  0
    8.2073   44.5114  127.3172 N   0  0  0  0  0  0  0  0  0  0  0  0
    9.0010   43.4991  126.9477 C   0  0  0  0  0  0  0  0  0  0  0  0
    9.7644   42.9130  127.9289 C   0  0  0  0  0  0  0  0  0  0  0  0
   10.8458   41.5879  127.6115 Cl  0  0  0  0  0  0  0  0  0  0  0  0
    9.6853   43.3823  129.2368 C   0  0  0  0  0  0  0  0  0  0  0  0
    8.8588   44.3975  129.4869 N   0  0  0  0  0  0  0  0  0  0  0  0
    7.2531   46.0742  128.9551 N   0  0  0  0  0  0  0  0  0  0  0  0
    6.2130   45.9427  128.7322 H   0  0  0  0  0  0  0  0  0  0  0  0
    7.5885   49.5987  130.1780 C   0  0  0  0  0  0  0  0  0  0  0  0
    7.1083   48.4610  129.5054 C   0  0  0  0  0  0  0  0  0  0  0  0
    7.6701   47.2449  129.6100 C   0  0  0  0  0  0  0  0  0  0  0  0
    8.7943   47.1344  130.4422 C   0  0  0  0  0  0  0  0  0  0  0  0
    9.2760   48.2323  131.1055 C   0  0  0  0  0  0  0  0  0  0  0  0
    8.6884   49.4840  130.9902 C   0  0  0  0  0  0  0  0  0  0  0  0
    6.9654   51.4395  128.7599 C   0  0  0  0  0  0  0  0  0  0  0  0
    6.9718   50.8319  130.0353 O   0  0  0  0  0  0  0  0  0  0  0  0
   10.3808   48.1225  131.9231 O   0  0  0  0  0  0  0  0  0  0  0  0
   11.4700   47.3338  131.4922 C   0  0  0  0  0  0  0  0  0  0  0  0
    9.1766   50.5977  131.6624 O   0  0  0  0  0  0  0  0  0  0  0  0
    9.5870   50.4489  132.9981 C   0  0  0  0  0  0  0  0  0  0  0  0
   10.4488   42.8132  130.2769 N   0  0  0  0  0  0  0  0  0  0  0  0
   10.8774   41.8674  130.1559 H   0  0  0  0  0  0  0  0  0  0  0  0
   10.6378   43.5217  131.4908 C   0  0  0  0  0  0  0  0  0  0  0  0
   11.8571   43.4250  132.1811 C   0  0  0  0  0  0  0  0  0  0  0  0
   12.0150   44.1224  133.3565 C   0  0  0  0  0  0  0  0  0  0  0  0
   11.0118   44.9112  133.8739 C   0  0  0  0  0  0  0  0  0  0  0  0
   11.1544   45.6197  135.0559 O   0  0  0  0  0  0  0  0  0  0  0  0
   10.0510   46.1151  135.7894 C   0  0  0  0  0  0  0  0  0  0  0  0
   10.4690   47.3570  136.5692 C   0  0  0  0  0  0  0  0  0  0  0  0
    9.5377   45.0425  136.7065 C   0  0  0  0  0  0  0  0  0  0  0  0
    8.9239   46.5244  134.9050 C   0  0  0  0  0  0  0  0  0  0  0  0
    8.1552   47.4754  135.2362 O   0  0  0  0  0  0  0  0  0  0  0  0
    8.7591   45.8052  133.6922 N   0  0  0  0  0  0  0  0  0  0  0  0
    9.8153   44.9935  133.1771 C   0  0  0  0  0  0  0  0  0  0  0  0
    9.6923   44.3012  132.0334 N   0  0  0  0  0  0  0  0  0  0  0  0
    7.8646   45.8713  133.1783 H   0  0  0  0  0  0  0  0  0  0  0  0
 16 17  1  0  0  0
 17 10  1  0  0  0
 10 11  2  0  0  0
 11 12  1  0  0  0
 12  8  1  0  0  0
  8  1  1  0  0  0
  1  2  2  0  0  0
  2  3  1  0  0  0
  3  4  2  0  0  0
  4  5  1  0  0  0
  4  6  1  0  0  0
  6 22  1  0  0  0
 22 24  1  0  0  0
 24 25  2  0  0  0
 25 26  1  0  0  0
 26 27  2  0  0  0
 27 28  1  0  0  0
 28 29  1  0  0  0
 29 30  1  0  0  0
 29 31  1  0  0  0
 29 32  1  0  0  0
 32 33  2  0  0  0
 32 34  1  0  0  0
 34 35  1  0  0  0
 35 36  2  0  0  0
  6  7  2  0  0  0
 12 13  2  0  0  0
 13 14  1  0  0  0
 14 18  1  0  0  0
 18 19  1  0  0  0
 14 15  2  0  0  0
 15 20  1  0  0  0
 20 21  1  0  0  0
 15 10  1  0  0  0
  7  1  1  0  0  0
 36 24  1  0  0  0
 35 27  1  0  0  0
  8  9  1  0  0  0
 22 23  1  0  0  0
 34 37  1  0  0  0
M  END
> <minimizedAffinity>
7.85376

> <CNNscore>
0.2554987073

> <CNNaffinity>
7.4517145157

> <CNN_VS>
1.9039034843

> <CNNaffinity_variance>
0.2482775450

$$$$
[H]c1nc(N([H])c2c([H])c(OC([H])([H])[H])c(OC([H])([H])[H])c(OC([H])([H])[H])c2[H])nc(N([H])c2nc3c(c([H])c2[H])OC(C([H])([H])[H])(C([H])([H])[H])C(=O)N3[H])c1Cl


 37 40  0  0  0  0  0  0  0  0999 V2000
    9.7526   45.9571  128.2393 C   0  0  0  0  0  0  0  0  0  0  0  0
   10.2537   45.5873  127.0712 N   0  0  0  0  0  0  0  0  0  0  0  0
   10.3755   44.3355  126.6135 C   0  0  0  0  0  0  0  0  0  0  0  0
    9.9376   43.3242  127.4348 C   0  0  0  0  0  0  0  0  0  0  0  0
   10.0263   41.6457  126.9870 Cl  0  0  0  0  0  0  0  0  0  0  0  0
    9.3976   43.6322  128.6801 C   0  0  0  0  0  0  0  0  0  0  0  0
    9.3267   44.9164  129.0296 N   0  0  0  0  0  0  0  0  0  0  0  0
    9.6115   47.2641  128.7479 N   0  0  0  0  0  0  0  0  0  0  0  0
    9.6547   48.0362  128.0057 H   0  0  0  0  0  0  0  0  0  0  0  0
    8.9769   47.2072  132.4390 C   0  0  0  0  0  0  0  0  0  0  0  0
    9.1636   46.7821  131.1117 C   0  0  0  0  0  0  0  0  0  0  0  0
    9.4311   47.6189  130.0950 C   0  0  0  0  0  0  0  0  0  0  0  0
    9.5238   48.9843  130.4043 C   0  0  0  0  0  0  0  0  0  0  0  0
    9.3450   49.4167  131.6922 C   0  0  0  0  0  0  0  0  0  0  0  0
    9.0686   48.5439  132.7348 C   0  0  0  0  0  0  0  0  0  0  0  0
    7.6221   45.4071  133.2826 C   0  0  0  0  0  0  0  0  0  0  0  0
    8.7023   46.3019  133.4520 O   0  0  0  0  0  0  0  0  0  0  0  0
    9.4364   50.7588  131.9949 O   0  0  0  0  0  0  0  0  0  0  0  0
    9.8771   51.1372  133.2820 C   0  0  0  0  0  0  0  0  0  0  0  0
    8.8870   48.9820  134.0409 O   0  0  0  0  0  0  0  0  0  0  0  0
    8.6148   48.0287  135.0367 C   0  0  0  0  0  0  0  0  0  0  0  0
    8.9352   42.6293  129.5571 N   0  0  0  0  0  0  0  0  0  0  0  0
    8.3645   41.8340  129.1901 H   0  0  0  0  0  0  0  0  0  0  0  0
    9.2426   42.6960  130.9399 C   0  0  0  0  0  0  0  0  0  0  0  0
    8.3228   42.2235  131.8903 C   0  0  0  0  0  0  0  0  0  0  0  0
    8.6453   42.2996  133.2256 C   0  0  0  0  0  0  0  0  0  0  0  0
    9.8433   42.8256  133.6551 C   0  0  0  0  0  0  0  0  0  0  0  0
   10.1835   42.9096  134.9955 O   0  0  0  0  0  0  0  0  0  0  0  0
   11.2031   43.7651  135.4744 C   0  0  0  0  0  0  0  0  0  0  0  0
   11.8085   43.1805  136.7460 C   0  0  0  0  0  0  0  0  0  0  0  0
   10.6340   45.1329  135.7204 C   0  0  0  0  0  0  0  0  0  0  0  0
   12.3190   43.9139  134.4984 C   0  0  0  0  0  0  0  0  0  0  0  0
   13.5065   44.1009  134.8982 O   0  0  0  0  0  0  0  0  0  0  0  0
   11.9877   43.8366  133.1201 N   0  0  0  0  0  0  0  0  0  0  0  0
   10.7381   43.2868  132.7009 C   0  0  0  0  0  0  0  0  0  0  0  0
   10.3942   43.1987  131.4061 N   0  0  0  0  0  0  0  0  0  0  0  0
   12.6596   44.1823  132.4146 H   0  0  0  0  0  0  0  0  0  0  0  0
 16 17  1  0  0  0
 17 10  1  0  0  0
 10 11  2  0  0  0
 11 12  1  0  0  0
 12  8  1  0  0  0
  8  1  1  0  0  0
  1  2  2  0  0  0
  2  3  1  0  0  0
  3  4  2  0  0  0
  4  5  1  0  0  0
  4  6  1  0  0  0
  6 22  1  0  0  0
 22 24  1  0  0  0
 24 25  2  0  0  0
 25 26  1  0  0  0
 26 27  2  0  0  0
 27 28  1  0  0  0
 28 29  1  0  0  0
 29 30  1  0  0  0
 29 31  1  0  0  0
 29 32  1  0  0  0
 32 33  2  0  0  0
 32 34  1  0  0  0
 34 35  1  0  0  0
 35 36  2  0  0  0
  6  7  2  0  0  0
 12 13  2  0  0  0
 13 14  1  0  0  0
 14 18  1  0  0  0
 18 19  1  0  0  0
 14 15  2  0  0  0
 15 20  1  0  0  0
 20 21  1  0  0  0
 15 10  1  0  0  0
  7  1  1  0  0  0
 36 24  1  0  0  0
 35 27  1  0  0  0
  8  9  1  0  0  0
 22 23  1  0  0  0
 34 37  1  0  0  0
M  END
> <minimizedAffinity>
9.16068

> <CNNscore>
0.2507113516

> <CNNaffinity>
7.4692621231

> <CNN_VS>
1.8726288080

> <CNNaffinity_variance>
0.1961749494

$$$$
[H]c1nc(N([H])c2c([H])c(OC([H])([H])[H])c(OC([H])([H])[H])c(OC([H])([H])[H])c2[H])nc(N([H])c2nc3c(c([H])c2[H])OC(C([H])([H])[H])(C([H])([H])[H])C(=O)N3[H])c1Cl


 37 40  0  0  0  0  0  0  0  0999 V2000
    8.1019   49.5959  131.8143 C   0  0  0  0  0  0  0  0  0  0  0  0
    7.2946   50.5830  131.4586 N   0  0  0  0  0  0  0  0  0  0  0  0
    6.9639   50.9352  130.2105 C   0  0  0  0  0  0  0  0  0  0  0  0
    7.5150   50.2016  129.1872 C   0  0  0  0  0  0  0  0  0  0  0  0
    7.1855   50.5322  127.5114 Cl  0  0  0  0  0  0  0  0  0  0  0  0
    8.3744   49.1467  129.4800 C   0  0  0  0  0  0  0  0  0  0  0  0
    8.6312   48.8880  130.7619 N   0  0  0  0  0  0  0  0  0  0  0  0
    8.4682   49.2018  133.1171 N   0  0  0  0  0  0  0  0  0  0  0  0
    8.3873   49.9758  133.8542 H   0  0  0  0  0  0  0  0  0  0  0  0
    9.3549   45.5640  133.2174 C   0  0  0  0  0  0  0  0  0  0  0  0
    8.9052   46.8143  132.7573 C   0  0  0  0  0  0  0  0  0  0  0  0
    8.9165   47.9291  133.5074 C   0  0  0  0  0  0  0  0  0  0  0  0
    9.4095   47.8090  134.8156 C   0  0  0  0  0  0  0  0  0  0  0  0
    9.8521   46.5985  135.2808 C   0  0  0  0  0  0  0  0  0  0  0  0
    9.8355   45.4531  134.4978 C   0  0  0  0  0  0  0  0  0  0  0  0
    8.5468   43.3347  132.8111 C   0  0  0  0  0  0  0  0  0  0  0  0
    9.3213   44.4433  132.4023 O   0  0  0  0  0  0  0  0  0  0  0  0
   10.3363   46.4818  136.5665 O   0  0  0  0  0  0  0  0  0  0  0  0
    9.9906   45.3401  137.3224 C   0  0  0  0  0  0  0  0  0  0  0  0
   10.2840   44.2254  134.9692 O   0  0  0  0  0  0  0  0  0  0  0  0
   11.5389   43.7599  134.5412 C   0  0  0  0  0  0  0  0  0  0  0  0
    8.9638   48.3659  128.4643 N   0  0  0  0  0  0  0  0  0  0  0  0
    9.0481   48.7448  127.4936 H   0  0  0  0  0  0  0  0  0  0  0  0
    9.4443   47.0638  128.7559 C   0  0  0  0  0  0  0  0  0  0  0  0
   10.8232   46.7983  128.7275 C   0  0  0  0  0  0  0  0  0  0  0  0
   11.2634   45.5268  129.0143 C   0  0  0  0  0  0  0  0  0  0  0  0
   10.3905   44.5090  129.3279 C   0  0  0  0  0  0  0  0  0  0  0  0
   10.8171   43.2234  129.6190 O   0  0  0  0  0  0  0  0  0  0  0  0
    9.9568   42.1016  129.5694 C   0  0  0  0  0  0  0  0  0  0  0  0
   10.4448   41.0369  130.5458 C   0  0  0  0  0  0  0  0  0  0  0  0
    9.9062   41.5716  128.1652 C   0  0  0  0  0  0  0  0  0  0  0  0
    8.5625   42.4421  129.9693 C   0  0  0  0  0  0  0  0  0  0  0  0
    7.8290   41.5864  130.5478 O   0  0  0  0  0  0  0  0  0  0  0  0
    8.1064   43.7535  129.6732 N   0  0  0  0  0  0  0  0  0  0  0  0
    9.0327   44.7915  129.3506 C   0  0  0  0  0  0  0  0  0  0  0  0
    8.6348   46.0418  129.0662 N   0  0  0  0  0  0  0  0  0  0  0  0
    7.0930   43.9567  129.6922 H   0  0  0  0  0  0  0  0  0  0  0  0
 16 17  1  0  0  0
 17 10  1  0  0  0
 10 11  2  0  0  0
 11 12  1  0  0  0
 12  8  1  0  0  0
  8  1  1  0  0  0
  1  2  2  0  0  0
  2  3  1  0  0  0
  3  4  2  0  0  0
  4  5  1  0  0  0
  4  6  1  0  0  0
  6 22  1  0  0  0
 22 24  1  0  0  0
 24 25  2  0  0  0
 25 26  1  0  0  0
 26 27  2  0  0  0
 27 28  1  0  0  0
 28 29  1  0  0  0
 29 30  1  0  0  0
 29 31  1  0  0  0
 29 32  1  0  0  0
 32 33  2  0  0  0
 32 34  1  0  0  0
 34 35  1  0  0  0
 35 36  2  0  0  0
  6  7  2  0  0  0
 12 13  2  0  0  0
 13 14  1  0  0  0
 14 18  1  0  0  0
 18 19  1  0  0  0
 14 15  2  0  0  0
 15 20  1  0  0  0
 20 21  1  0  0  0
 15 10  1  0  0  0
  7  1  1  0  0  0
 36 24  1  0  0  0
 35 27  1  0  0  0
  8  9  1  0  0  0
 22 23  1  0  0  0
 34 37  1  0  0  0
M  END
> <minimizedAffinity>
9.89252

> <CNNscore>
0.2419079542

> <CNNaffinity>
7.3548102379

> <CNN_VS>
1.7791870832

> <CNNaffinity_variance>
0.1936676204

$$$$
[H]c1nc(N([H])c2c([H])c(OC([H])([H])[H])c(OC([H])([H])[H])c(OC([H])([H])[H])c2[H])nc(N([H])c2nc3c(c([H])c2[H])OC(C([H])([H])[H])(C([H])([H])[H])C(=O)N3[H])c1Cl


 37 40  0  0  0  0  0  0  0  0999 V2000
   10.0000   42.8688  130.1428 C   0  0  0  0  0  0  0  0  0  0  0  0
    9.5961   42.2328  129.0543 N   0  0  0  0  0  0  0  0  0  0  0  0
    9.6225   42.6986  127.7999 C   0  0  0  0  0  0  0  0  0  0  0  0
   10.1184   43.9669  127.6144 C   0  0  0  0  0  0  0  0  0  0  0  0
   10.2198   44.7157  126.0475 Cl  0  0  0  0  0  0  0  0  0  0  0  0
   10.5633   44.7005  128.7102 C   0  0  0  0  0  0  0  0  0  0  0  0
   10.4884   44.1328  129.9137 N   0  0  0  0  0  0  0  0  0  0  0  0
    9.9848   42.4054  131.4740 N   0  0  0  0  0  0  0  0  0  0  0  0
    9.8954   41.3418  131.5727 H   0  0  0  0  0  0  0  0  0  0  0  0
   11.0122   43.9112  134.7461 C   0  0  0  0  0  0  0  0  0  0  0  0
   10.9959   43.0966  133.6001 C   0  0  0  0  0  0  0  0  0  0  0  0
   10.0692   43.1957  132.6322 C   0  0  0  0  0  0  0  0  0  0  0  0
    9.0773   44.1737  132.8007 C   0  0  0  0  0  0  0  0  0  0  0  0
    9.0776   44.9766  133.9110 C   0  0  0  0  0  0  0  0  0  0  0  0
   10.0393   44.8656  134.9051 C   0  0  0  0  0  0  0  0  0  0  0  0
   11.6705   43.0675  136.9007 C   0  0  0  0  0  0  0  0  0  0  0  0
   11.9916   43.7677  135.7164 O   0  0  0  0  0  0  0  0  0  0  0  0
    8.1024   45.9374  134.0755 O   0  0  0  0  0  0  0  0  0  0  0  0
    6.8097   45.5329  134.4750 C   0  0  0  0  0  0  0  0  0  0  0  0
   10.0398   45.6795  136.0312 O   0  0  0  0  0  0  0  0  0  0  0  0
    9.9511   47.0706  135.8540 C   0  0  0  0  0  0  0  0  0  0  0  0
   11.0800   46.0051  128.5696 N   0  0  0  0  0  0  0  0  0  0  0  0
   12.0277   46.1519  128.1534 H   0  0  0  0  0  0  0  0  0  0  0  0
   10.3161   47.1227  128.9924 C   0  0  0  0  0  0  0  0  0  0  0  0
   10.9351   48.1821  129.6757 C   0  0  0  0  0  0  0  0  0  0  0  0
   10.1715   49.2547  130.0750 C   0  0  0  0  0  0  0  0  0  0  0  0
    8.8190   49.3176  129.8235 C   0  0  0  0  0  0  0  0  0  0  0  0
    8.0358   50.3899  130.2187 O   0  0  0  0  0  0  0  0  0  0  0  0
    6.6265   50.3145  130.3142 C   0  0  0  0  0  0  0  0  0  0  0  0
    6.0216   51.6946  130.0804 C   0  0  0  0  0  0  0  0  0  0  0  0
    6.2447   49.7731  131.6619 C   0  0  0  0  0  0  0  0  0  0  0  0
    6.0392   49.4101  129.2861 C   0  0  0  0  0  0  0  0  0  0  0  0
    4.8865   49.6344  128.8110 O   0  0  0  0  0  0  0  0  0  0  0  0
    6.8255   48.3024  128.8737 N   0  0  0  0  0  0  0  0  0  0  0  0
    8.2266   48.2613  129.1473 C   0  0  0  0  0  0  0  0  0  0  0  0
    8.9986   47.2294  128.7710 N   0  0  0  0  0  0  0  0  0  0  0  0
    6.3771   47.5188  128.3702 H   0  0  0  0  0  0  0  0  0  0  0  0
 16 17  1  0  0  0
 17 10  1  0  0  0
 10 11  2  0  0  0
 11 12  1  0  0  0
 12  8  1  0  0  0
  8  1  1  0  0  0
  1  2  2  0  0  0
  2  3  1  0  0  0
  3  4  2  0  0  0
  4  5  1  0  0  0
  4  6  1  0  0  0
  6 22  1  0  0  0
 22 24  1  0  0  0
 24 25  2  0  0  0
 25 26  1  0  0  0
 26 27  2  0  0  0
 27 28  1  0  0  0
 28 29  1  0  0  0
 29 30  1  0  0  0
 29 31  1  0  0  0
 29 32  1  0  0  0
 32 33  2  0  0  0
 32 34  1  0  0  0
 34 35  1  0  0  0
 35 36  2  0  0  0
  6  7  2  0  0  0
 12 13  2  0  0  0
 13 14  1  0  0  0
 14 18  1  0  0  0
 18 19  1  0  0  0
 14 15  2  0  0  0
 15 20  1  0  0  0
 20 21  1  0  0  0
 15 10  1  0  0  0
  7  1  1  0  0  0
 36 24  1  0  0  0
 35 27  1  0  0  0
  8  9  1  0  0  0
 22 23  1  0  0  0
 34 37  1  0  0  0
M  END
> <minimizedAffinity>
9.92190

> <CNNscore>
0.2365190834

> <CNNaffinity>
7.3225908279

> <CNN_VS>
1.7319325209

> <CNNaffinity_variance>
0.2820630670

$$$$
[H]c1nc(N([H])c2c([H])c(OC([H])([H])[H])c(OC([H])([H])[H])c(OC([H])([H])[H])c2[H])nc(N([H])c2nc3c(c([H])c2[H])OC(C([H])([H])[H])(C([H])([H])[H])C(=O)N3[H])c1Cl


 37 40  0  0  0  0  0  0  0  0999 V2000
    9.1935   45.7004  127.9622 C   0  0  0  0  0  0  0  0  0  0  0  0
    9.1821   46.4778  126.8908 N   0  0  0  0  0  0  0  0  0  0  0  0
    8.6045   47.6803  126.7814 C   0  0  0  0  0  0  0  0  0  0  0  0
    7.9545   48.1647  127.8913 C   0  0  0  0  0  0  0  0  0  0  0  0
    7.1545   49.7093  127.9115 Cl  0  0  0  0  0  0  0  0  0  0  0  0
    7.9220   47.4058  129.0575 C   0  0  0  0  0  0  0  0  0  0  0  0
    8.5329   46.2214  129.0490 N   0  0  0  0  0  0  0  0  0  0  0  0
    9.7918   44.4324  128.1073 N   0  0  0  0  0  0  0  0  0  0  0  0
    9.6587   43.7800  127.2673 H   0  0  0  0  0  0  0  0  0  0  0  0
   10.8072   42.8368  131.3404 C   0  0  0  0  0  0  0  0  0  0  0  0
   10.0300   43.2488  130.2433 C   0  0  0  0  0  0  0  0  0  0  0  0
   10.5143   43.9747  129.2216 C   0  0  0  0  0  0  0  0  0  0  0  0
   11.8717   44.3252  129.2792 C   0  0  0  0  0  0  0  0  0  0  0  0
   12.6443   43.9322  130.3404 C   0  0  0  0  0  0  0  0  0  0  0  0
   12.1340   43.1830  131.3908 C   0  0  0  0  0  0  0  0  0  0  0  0
    8.8833   42.2424  132.6568 C   0  0  0  0  0  0  0  0  0  0  0  0
   10.2581   42.0886  132.3700 O   0  0  0  0  0  0  0  0  0  0  0  0
   13.9781   44.2772  130.3958 O   0  0  0  0  0  0  0  0  0  0  0  0
   14.7721   44.1111  129.2399 C   0  0  0  0  0  0  0  0  0  0  0  0
   12.9171   42.7845  132.4672 O   0  0  0  0  0  0  0  0  0  0  0  0
   12.7975   43.4847  133.6797 C   0  0  0  0  0  0  0  0  0  0  0  0
    7.2677   47.8608  130.2210 N   0  0  0  0  0  0  0  0  0  0  0  0
    6.3226   48.3024  130.1525 H   0  0  0  0  0  0  0  0  0  0  0  0
    7.8892   47.7209  131.4880 C   0  0  0  0  0  0  0  0  0  0  0  0
    8.0911   48.8472  132.3024 C   0  0  0  0  0  0  0  0  0  0  0  0
    8.6964   48.6845  133.5272 C   0  0  0  0  0  0  0  0  0  0  0  0
    9.1091   47.4496  133.9755 C   0  0  0  0  0  0  0  0  0  0  0  0
    9.7200   47.2684  135.2057 O   0  0  0  0  0  0  0  0  0  0  0  0
   10.4771   46.1162  135.5222 C   0  0  0  0  0  0  0  0  0  0  0  0
   10.4227   45.8631  137.0250 C   0  0  0  0  0  0  0  0  0  0  0  0
   11.8910   46.3017  135.0514 C   0  0  0  0  0  0  0  0  0  0  0  0
    9.9431   44.8917  134.8625 C   0  0  0  0  0  0  0  0  0  0  0  0
   10.0497   43.7589  135.4195 O   0  0  0  0  0  0  0  0  0  0  0  0
    9.3190   45.0578  133.5983 N   0  0  0  0  0  0  0  0  0  0  0  0
    8.9006   46.3499  133.1564 C   0  0  0  0  0  0  0  0  0  0  0  0
    8.3074   46.5414  131.9673 N   0  0  0  0  0  0  0  0  0  0  0  0
    9.1669   44.2336  132.9931 H   0  0  0  0  0  0  0  0  0  0  0  0
 16 17  1  0  0  0
 17 10  1  0  0  0
 10 11  2  0  0  0
 11 12  1  0  0  0
 12  8  1  0  0  0
  8  1  1  0  0  0
  1  2  2  0  0  0
  2  3  1  0  0  0
  3  4  2  0  0  0
  4  5  1  0  0  0
  4  6  1  0  0  0
  6 22  1  0  0  0
 22 24  1  0  0  0
 24 25  2  0  0  0
 25 26  1  0  0  0
 26 27  2  0  0  0
 27 28  1  0  0  0
 28 29  1  0  0  0
 29 30  1  0  0  0
 29 31  1  0  0  0
 29 32  1  0  0  0
 32 33  2  0  0  0
 32 34  1  0  0  0
 34 35  1  0  0  0
 35 36  2  0  0  0
  6  7  2  0  0  0
 12 13  2  0  0  0
 13 14  1  0  0  0
 14 18  1  0  0  0
 18 19  1  0  0  0
 14 15  2  0  0  0
 15 20  1  0  0  0
 20 21  1  0  0  0
 15 10  1  0  0  0
  7  1  1  0  0  0
 36 24  1  0  0  0
 35 27  1  0  0  0
  8  9  1  0  0  0
 22 23  1  0  0  0
 34 37  1  0  0  0
M  END
> <minimizedAffinity>
14.41657

> <CNNscore>
0.2305738479

> <CNNaffinity>
7.3743567467

> <CNN_VS>
1.7003338337

> <CNNaffinity_variance>
0.1981869638

$$$$
[H]/C(=C1/C(=O)N([H])c2c([H])c([H])c(C([H])([H])[H])c([H])c21)c1c([H])c([H])c(N2C([H])([H])C([H])([H])N(C([H])([H])[H])C([H])([H])C2([H])[H])c([H])c1[H]


 26 29  0  0  0  0  0  0  0  0999 V2000
    7.4355   51.1177  128.5468 C   0  0  0  0  0  0  0  0  0  0  0  0
    7.0702   49.9323  127.9438 C   0  0  0  0  0  0  0  0  0  0  0  0
    7.1973   48.7193  128.5726 C   0  0  0  0  0  0  0  0  0  0  0  0
    7.6969   48.6288  129.8377 C   0  0  0  0  0  0  0  0  0  0  0  0
    8.0766   49.8140  130.4774 C   0  0  0  0  0  0  0  0  0  0  0  0
    7.9363   51.0086  129.8206 C   0  0  0  0  0  0  0  0  0  0  0  0
    7.8499   47.3535  130.5078 C   0  0  0  0  0  0  0  0  0  0  0  0
    8.8485   46.5593  130.2811 C   0  0  0  0  0  0  0  0  0  0  0  0
    9.9875   46.6983  129.3944 C   0  0  0  0  0  0  0  0  0  0  0  0
   10.2631   47.6930  128.6431 O   0  0  0  0  0  0  0  0  0  0  0  0
   10.7506   45.5066  129.5233 N   0  0  0  0  0  0  0  0  0  0  0  0
   10.1526   44.6175  130.4498 C   0  0  0  0  0  0  0  0  0  0  0  0
   10.5025   43.3480  130.9172 C   0  0  0  0  0  0  0  0  0  0  0  0
    9.7280   42.6963  131.8354 C   0  0  0  0  0  0  0  0  0  0  0  0
    8.5805   43.3066  132.3072 C   0  0  0  0  0  0  0  0  0  0  0  0
    7.7668   42.5650  133.3043 C   0  0  0  0  0  0  0  0  0  0  0  0
    8.2347   44.5600  131.8459 C   0  0  0  0  0  0  0  0  0  0  0  0
    9.0129   45.2233  130.9183 C   0  0  0  0  0  0  0  0  0  0  0  0
   11.6332   45.3591  128.9785 H   0  0  0  0  0  0  0  0  0  0  0  0
    5.9961   54.2917  125.1768 C   0  0  0  0  0  0  0  0  0  0  0  0
    6.6761   54.6613  126.4022 N   0  0  0  0  0  0  0  0  0  0  0  0
    7.9893   54.0976  126.3953 C   0  0  0  0  0  0  0  0  0  0  0  0
    7.8485   52.5864  126.5923 C   0  0  0  0  0  0  0  0  0  0  0  0
    7.3239   52.3911  127.9279 N   0  0  0  0  0  0  0  0  0  0  0  0
    6.6971   53.5228  128.5739 C   0  0  0  0  0  0  0  0  0  0  0  0
    5.8715   54.2495  127.5118 C   0  0  0  0  0  0  0  0  0  0  0  0
 20 21  1  0  0  0
 21 22  1  0  0  0
 22 23  1  0  0  0
 23 24  1  0  0  0
 24 25  1  0  0  0
 25 26  1  0  0  0
 24  1  1  0  0  0
  1  2  2  0  0  0
  2  3  1  0  0  0
  3  4  2  0  0  0
  4  7  1  0  0  0
  7  8  2  0  0  0
  8  9  1  0  0  0
  9 10  2  0  0  0
  9 11  1  0  0  0
 11 12  1  0  0  0
 12 13  2  0  0  0
 13 14  1  0  0  0
 14 15  2  0  0  0
 15 16  1  0  0  0
 15 17  1  0  0  0
 17 18  2  0  0  0
  4  5  1  0  0  0
  5  6  2  0  0  0
 26 21  1  0  0  0
  6  1  1  0  0  0
 18  8  1  0  0  0
 18 12  1  0  0  0
 11 19  1  0  0  0
M  END
> <minimizedAffinity>
9.76534

> <CNNscore>
0.3188505173

> <CNNaffinity>
6.1717748642

> <CNN_VS>
1.9678735733

> <CNNaffinity_variance>
0.6945451498

$$$$
[H]/C(=C1/C(=O)N([H])c2c([H])c([H])c(C([H])([H])[H])c([H])c21)c1c([H])c([H])c(N2C([H])([H])C([H])([H])N(C([H])([H])[H])C([H])([H])C2([H])[H])c([H])c1[H]


 26 29  0  0  0  0  0  0  0  0999 V2000
    7.4783   50.3813  129.0271 C   0  0  0  0  0  0  0  0  0  0  0  0
    8.0404   50.3562  130.2863 C   0  0  0  0  0  0  0  0  0  0  0  0
    8.3028   49.1841  130.9497 C   0  0  0  0  0  0  0  0  0  0  0  0
    8.0162   47.9754  130.3879 C   0  0  0  0  0  0  0  0  0  0  0  0
    7.4453   47.9668  129.1104 C   0  0  0  0  0  0  0  0  0  0  0  0
    7.1963   49.1558  128.4760 C   0  0  0  0  0  0  0  0  0  0  0  0
    8.2747   46.7309  131.0829 C   0  0  0  0  0  0  0  0  0  0  0  0
    9.2714   45.9576  130.7861 C   0  0  0  0  0  0  0  0  0  0  0  0
   10.3134   46.0961  129.7870 C   0  0  0  0  0  0  0  0  0  0  0  0
   10.4822   47.0696  128.9786 O   0  0  0  0  0  0  0  0  0  0  0  0
   11.1233   44.9323  129.8807 N   0  0  0  0  0  0  0  0  0  0  0  0
   10.6475   44.0616  130.8916 C   0  0  0  0  0  0  0  0  0  0  0  0
   11.0819   42.8209  131.3653 C   0  0  0  0  0  0  0  0  0  0  0  0
   10.4221   42.1820  132.3773 C   0  0  0  0  0  0  0  0  0  0  0  0
    9.3072   42.7763  132.9388 C   0  0  0  0  0  0  0  0  0  0  0  0
    8.6189   42.0493  134.0362 C   0  0  0  0  0  0  0  0  0  0  0  0
    8.8779   44.0012  132.4713 C   0  0  0  0  0  0  0  0  0  0  0  0
    9.5401   44.6516  131.4493 C   0  0  0  0  0  0  0  0  0  0  0  0
   11.9528   44.7900  129.2568 H   0  0  0  0  0  0  0  0  0  0  0  0
    8.4553   54.6611  126.9699 C   0  0  0  0  0  0  0  0  0  0  0  0
    7.1873   53.9706  126.8440 N   0  0  0  0  0  0  0  0  0  0  0  0
    6.5780   53.8750  128.1332 C   0  0  0  0  0  0  0  0  0  0  0  0
    7.3765   52.8575  128.9515 C   0  0  0  0  0  0  0  0  0  0  0  0
    7.1874   51.5727  128.3108 N   0  0  0  0  0  0  0  0  0  0  0  0
    6.7073   51.5681  126.9468 C   0  0  0  0  0  0  0  0  0  0  0  0
    7.4175   52.7065  126.2137 C   0  0  0  0  0  0  0  0  0  0  0  0
 20 21  1  0  0  0
 21 22  1  0  0  0
 22 23  1  0  0  0
 23 24  1  0  0  0
 24 25  1  0  0  0
 25 26  1  0  0  0
 24  1  1  0  0  0
  1  2  2  0  0  0
  2  3  1  0  0  0
  3  4  2  0  0  0
  4  7  1  0  0  0
  7  8  2  0  0  0
  8  9  1  0  0  0
  9 10  2  0  0  0
  9 11  1  0  0  0
 11 12  1  0  0  0
 12 13  2  0  0  0
 13 14  1  0  0  0
 14 15  2  0  0  0
 15 16  1  0  0  0
 15 17  1  0  0  0
 17 18  2  0  0  0
  4  5  1  0  0  0
  5  6  2  0  0  0
 26 21  1  0  0  0
  6  1  1  0  0  0
 18  8  1  0  0  0
 18 12  1  0  0  0
 11 19  1  0  0  0
M  END
> <minimizedAffinity>
10.15087

> <CNNscore>
0.2505915761

> <CNNaffinity>
6.3185758591

> <CNN_VS>
1.5833818913

> <CNNaffinity_variance>
0.6052458286

$$$$
[H]/C(=C1/C(=O)N([H])c2c([H])c([H])c(C([H])([H])[H])c([H])c21)c1c([H])c([H])c(N2C([H])([H])C([H])([H])N(C([H])([H])[H])C([H])([H])C2([H])[H])c([H])c1[H]


 26 29  0  0  0  0  0  0  0  0999 V2000
    8.0430   46.3355  130.4483 C   0  0  0  0  0  0  0  0  0  0  0  0
    6.9010   46.7006  129.7666 C   0  0  0  0  0  0  0  0  0  0  0  0
    6.8511   47.8086  128.9587 C   0  0  0  0  0  0  0  0  0  0  0  0
    7.9413   48.6097  128.7909 C   0  0  0  0  0  0  0  0  0  0  0  0
    9.1161   48.2660  129.4690 C   0  0  0  0  0  0  0  0  0  0  0  0
    9.1316   47.1527  130.2679 C   0  0  0  0  0  0  0  0  0  0  0  0
    7.8983   49.7903  127.9524 C   0  0  0  0  0  0  0  0  0  0  0  0
    7.4908   50.9417  128.3856 C   0  0  0  0  0  0  0  0  0  0  0  0
    7.0171   51.3481  129.6946 C   0  0  0  0  0  0  0  0  0  0  0  0
    6.9289   50.6236  130.7420 O   0  0  0  0  0  0  0  0  0  0  0  0
    6.6688   52.7219  129.5921 N   0  0  0  0  0  0  0  0  0  0  0  0
    6.8994   53.2087  128.2820 C   0  0  0  0  0  0  0  0  0  0  0  0
    6.7236   54.4589  127.6832 C   0  0  0  0  0  0  0  0  0  0  0  0
    7.0338   54.6607  126.3676 C   0  0  0  0  0  0  0  0  0  0  0  0
    7.5296   53.6081  125.6207 C   0  0  0  0  0  0  0  0  0  0  0  0
    7.8545   53.8690  124.1948 C   0  0  0  0  0  0  0  0  0  0  0  0
    7.7033   52.3737  126.2115 C   0  0  0  0  0  0  0  0  0  0  0  0
    7.3916   52.1635  127.5399 C   0  0  0  0  0  0  0  0  0  0  0  0
    6.2944   53.2553  130.4125 H   0  0  0  0  0  0  0  0  0  0  0  0
   10.2534   42.6558  132.7017 C   0  0  0  0  0  0  0  0  0  0  0  0
    8.8804   43.0503  132.9463 N   0  0  0  0  0  0  0  0  0  0  0  0
    8.1193   42.8557  131.7526 C   0  0  0  0  0  0  0  0  0  0  0  0
    8.5484   43.9265  130.7467 C   0  0  0  0  0  0  0  0  0  0  0  0
    8.1328   45.2000  131.2967 N   0  0  0  0  0  0  0  0  0  0  0  0
    7.8290   45.2529  132.7094 C   0  0  0  0  0  0  0  0  0  0  0  0
    8.8727   44.3978  133.4286 C   0  0  0  0  0  0  0  0  0  0  0  0
 20 21  1  0  0  0
 21 22  1  0  0  0
 22 23  1  0  0  0
 23 24  1  0  0  0
 24 25  1  0  0  0
 25 26  1  0  0  0
 24  1  1  0  0  0
  1  2  2  0  0  0
  2  3  1  0  0  0
  3  4  2  0  0  0
  4  7  1  0  0  0
  7  8  2  0  0  0
  8  9  1  0  0  0
  9 10  2  0  0  0
  9 11  1  0  0  0
 11 12  1  0  0  0
 12 13  2  0  0  0
 13 14  1  0  0  0
 14 15  2  0  0  0
 15 16  1  0  0  0
 15 17  1  0  0  0
 17 18  2  0  0  0
  4  5  1  0  0  0
  5  6  2  0  0  0
 26 21  1  0  0  0
  6  1  1  0  0  0
 18  8  1  0  0  0
 18 12  1  0  0  0
 11 19  1  0  0  0
M  END
> <minimizedAffinity>
9.09902

> <CNNscore>
0.2157844007

> <CNNaffinity>
6.0042915344

> <CNN_VS>
1.2956324816

> <CNNaffinity_variance>
0.2947322428

$$$$
[H]/C(=C1/C(=O)N([H])c2c([H])c([H])c(C([H])([H])[H])c([H])c21)c1c([H])c([H])c(N2C([H])([H])C([H])([H])N(C([H])([H])[H])C([H])([H])C2([H])[H])c([H])c1[H]


 26 29  0  0  0  0  0  0  0  0999 V2000
    7.8398   50.3291  129.4460 C   0  0  0  0  0  0  0  0  0  0  0  0
    7.3984   49.0253  129.3587 C   0  0  0  0  0  0  0  0  0  0  0  0
    7.9166   48.0213  130.1372 C   0  0  0  0  0  0  0  0  0  0  0  0
    8.9040   48.2690  131.0439 C   0  0  0  0  0  0  0  0  0  0  0  0
    9.3737   49.5823  131.1570 C   0  0  0  0  0  0  0  0  0  0  0  0
    8.8341   50.5612  130.3641 C   0  0  0  0  0  0  0  0  0  0  0  0
    9.4701   47.2159  131.8619 C   0  0  0  0  0  0  0  0  0  0  0  0
   10.1138   46.2094  131.3598 C   0  0  0  0  0  0  0  0  0  0  0  0
   10.4312   45.8785  129.9841 C   0  0  0  0  0  0  0  0  0  0  0  0
   10.1504   46.5608  128.9423 O   0  0  0  0  0  0  0  0  0  0  0  0
   11.1251   44.6388  130.0141 N   0  0  0  0  0  0  0  0  0  0  0  0
   11.2653   44.1665  131.3421 C   0  0  0  0  0  0  0  0  0  0  0  0
   11.8553   43.0257  131.8925 C   0  0  0  0  0  0  0  0  0  0  0  0
   11.8494   42.8098  133.2419 C   0  0  0  0  0  0  0  0  0  0  0  0
   11.2490   43.7378  134.0726 C   0  0  0  0  0  0  0  0  0  0  0  0
   11.2643   43.4659  135.5329 C   0  0  0  0  0  0  0  0  0  0  0  0
   10.6664   44.8642  133.5296 C   0  0  0  0  0  0  0  0  0  0  0  0
   10.6690   45.0879  132.1673 C   0  0  0  0  0  0  0  0  0  0  0  0
   11.4658   44.1799  129.1360 H   0  0  0  0  0  0  0  0  0  0  0  0
    7.9310   54.6591  127.2675 C   0  0  0  0  0  0  0  0  0  0  0  0
    6.8799   53.6787  127.0813 N   0  0  0  0  0  0  0  0  0  0  0  0
    6.2068   53.4743  128.3252 C   0  0  0  0  0  0  0  0  0  0  0  0
    7.1551   52.7038  129.2469 C   0  0  0  0  0  0  0  0  0  0  0  0
    7.3326   51.3941  128.6551 N   0  0  0  0  0  0  0  0  0  0  0  0
    6.9820   51.2353  127.2613 C   0  0  0  0  0  0  0  0  0  0  0  0
    7.4573   52.4910  126.5297 C   0  0  0  0  0  0  0  0  0  0  0  0
 20 21  1  0  0  0
 21 22  1  0  0  0
 22 23  1  0  0  0
 23 24  1  0  0  0
 24 25  1  0  0  0
 25 26  1  0  0  0
 24  1  1  0  0  0
  1  2  2  0  0  0
  2  3  1  0  0  0
  3  4  2  0  0  0
  4  7  1  0  0  0
  7  8  2  0  0  0
  8  9  1  0  0  0
  9 10  2  0  0  0
  9 11  1  0  0  0
 11 12  1  0  0  0
 12 13  2  0  0  0
 13 14  1  0  0  0
 14 15  2  0  0  0
 15 16  1  0  0  0
 15 17  1  0  0  0
 17 18  2  0  0  0
  4  5  1  0  0  0
  5  6  2  0  0  0
 26 21  1  0  0  0
  6  1  1  0  0  0
 18  8  1  0  0  0
 18 12  1  0  0  0
 11 19  1  0  0  0
M  END
> <minimizedAffinity>
10.04247

> <CNNscore>
0.2128231227

> <CNNaffinity>
6.4491033554

> <CNN_VS>
1.3725183010

> <CNNaffinity_variance>
0.5706330538

$$$$
[H]/C(=C1/C(=O)N([H])c2c([H])c([H])c(C([H])([H])[H])c([H])c21)c1c([H])c([H])c(N2C([H])([H])C([H])([H])N(C([H])([H])[H])C([H])([H])C2([H])[H])c([H])c1[H]


 26 29  0  0  0  0  0  0  0  0999 V2000
    7.3337   51.3307  128.3996 C   0  0  0  0  0  0  0  0  0  0  0  0
    7.4780   50.1071  127.7798 C   0  0  0  0  0  0  0  0  0  0  0  0
    7.6321   48.9405  128.4856 C   0  0  0  0  0  0  0  0  0  0  0  0
    7.6504   48.9372  129.8487 C   0  0  0  0  0  0  0  0  0  0  0  0
    7.5061   50.1631  130.5078 C   0  0  0  0  0  0  0  0  0  0  0  0
    7.3540   51.3094  129.7724 C   0  0  0  0  0  0  0  0  0  0  0  0
    7.8268   47.7148  130.6060 C   0  0  0  0  0  0  0  0  0  0  0  0
    8.8578   47.5027  131.3621 C   0  0  0  0  0  0  0  0  0  0  0  0
   10.0094   48.3357  131.6497 C   0  0  0  0  0  0  0  0  0  0  0  0
   10.2357   49.5150  131.2164 O   0  0  0  0  0  0  0  0  0  0  0  0
   10.8470   47.5851  132.5181 N   0  0  0  0  0  0  0  0  0  0  0  0
   10.2830   46.3161  132.7974 C   0  0  0  0  0  0  0  0  0  0  0  0
   10.7032   45.2352  133.5767 C   0  0  0  0  0  0  0  0  0  0  0  0
    9.9475   44.1008  133.6753 C   0  0  0  0  0  0  0  0  0  0  0  0
    8.7482   44.0257  132.9913 C   0  0  0  0  0  0  0  0  0  0  0  0
    7.9569   42.7757  133.1250 C   0  0  0  0  0  0  0  0  0  0  0  0
    8.3331   45.0927  132.2217 C   0  0  0  0  0  0  0  0  0  0  0  0
    9.0921   46.2412  132.1181 C   0  0  0  0  0  0  0  0  0  0  0  0
   11.7535   47.9711  132.8744 H   0  0  0  0  0  0  0  0  0  0  0  0
    6.4526   54.1709  124.5707 C   0  0  0  0  0  0  0  0  0  0  0  0
    6.6168   54.6615  125.9246 N   0  0  0  0  0  0  0  0  0  0  0  0
    7.9470   54.3801  126.3646 C   0  0  0  0  0  0  0  0  0  0  0  0
    8.0523   52.8705  126.5939 C   0  0  0  0  0  0  0  0  0  0  0  0
    7.1769   52.5595  127.7048 N   0  0  0  0  0  0  0  0  0  0  0  0
    6.1655   53.5321  128.0538 C   0  0  0  0  0  0  0  0  0  0  0  0
    5.5973   54.0829  126.7456 C   0  0  0  0  0  0  0  0  0  0  0  0
 20 21  1  0  0  0
 21 22  1  0  0  0
 22 23  1  0  0  0
 23 24  1  0  0  0
 24 25  1  0  0  0
 25 26  1  0  0  0
 24  1  1  0  0  0
  1  2  2  0  0  0
  2  3  1  0  0  0
  3  4  2  0  0  0
  4  7  1  0  0  0
  7  8  2  0  0  0
  8  9  1  0  0  0
  9 10  2  0  0  0
  9 11  1  0  0  0
 11 12  1  0  0  0
 12 13  2  0  0  0
 13 14  1  0  0  0
 14 15  2  0  0  0
 15 16  1  0  0  0
 15 17  1  0  0  0
 17 18  2  0  0  0
  4  5  1  0  0  0
  5  6  2  0  0  0
 26 21  1  0  0  0
  6  1  1  0  0  0
 18  8  1  0  0  0
 18 12  1  0  0  0
 11 19  1  0  0  0
M  END
> <minimizedAffinity>
7.87303

> <CNNscore>
0.1615194231

> <CNNaffinity>
5.9785437584

> <CNN_VS>
0.9656509161

> <CNNaffinity_variance>
0.2306199074

$$$$
[H]/C(=C1/C(=O)N([H])c2c([H])c([H])c(C([H])([H])[H])c([H])c21)c1c([H])c([H])c(N2C([H])([H])C([H])([H])N(C([H])([H])[H])C([H])([H])C2([H])[H])c([H])c1[H]


 26 29  0  0  0  0  0  0  0  0999 V2000
    7.2022   51.5601  128.4403 C   0  0  0  0  0  0  0  0  0  0  0  0
    6.8536   51.4756  129.7720 C   0  0  0  0  0  0  0  0  0  0  0  0
    7.0244   50.3277  130.5041 C   0  0  0  0  0  0  0  0  0  0  0  0
    7.5527   49.2038  129.9418 C   0  0  0  0  0  0  0  0  0  0  0  0
    7.9172   49.2571  128.5918 C   0  0  0  0  0  0  0  0  0  0  0  0
    7.7331   50.4196  127.8899 C   0  0  0  0  0  0  0  0  0  0  0  0
    7.7252   47.9809  130.6992 C   0  0  0  0  0  0  0  0  0  0  0  0
    8.6192   47.8537  131.6287 C   0  0  0  0  0  0  0  0  0  0  0  0
    9.5986   48.7949  132.1367 C   0  0  0  0  0  0  0  0  0  0  0  0
    9.7656   50.0066  131.7712 O   0  0  0  0  0  0  0  0  0  0  0  0
   10.3439   48.1079  133.1325 N   0  0  0  0  0  0  0  0  0  0  0  0
    9.8849   46.7763  133.2830 C   0  0  0  0  0  0  0  0  0  0  0  0
   10.2757   45.7193  134.1091 C   0  0  0  0  0  0  0  0  0  0  0  0
    9.6471   44.5073  134.0488 C   0  0  0  0  0  0  0  0  0  0  0  0
    8.6079   44.3284  133.1545 C   0  0  0  0  0  0  0  0  0  0  0  0
    7.9510   42.9965  133.1204 C   0  0  0  0  0  0  0  0  0  0  0  0
    8.2218   45.3717  132.3387 C   0  0  0  0  0  0  0  0  0  0  0  0
    8.8530   46.5983  132.3949 C   0  0  0  0  0  0  0  0  0  0  0  0
   11.1215   48.5760  133.6557 H   0  0  0  0  0  0  0  0  0  0  0  0
    6.7824   54.1011  124.3330 C   0  0  0  0  0  0  0  0  0  0  0  0
    6.5945   54.6609  125.6566 N   0  0  0  0  0  0  0  0  0  0  0  0
    7.8280   54.5859  126.3743 C   0  0  0  0  0  0  0  0  0  0  0  0
    8.0775   53.1158  126.7195 C   0  0  0  0  0  0  0  0  0  0  0  0
    7.0367   52.7274  127.6484 N   0  0  0  0  0  0  0  0  0  0  0  0
    5.8574   53.5610  127.7205 C   0  0  0  0  0  0  0  0  0  0  0  0
    5.5093   53.9765  126.2908 C   0  0  0  0  0  0  0  0  0  0  0  0
 20 21  1  0  0  0
 21 22  1  0  0  0
 22 23  1  0  0  0
 23 24  1  0  0  0
 24 25  1  0  0  0
 25 26  1  0  0  0
 24  1  1  0  0  0
  1  2  2  0  0  0
  2  3  1  0  0  0
  3  4  2  0  0  0
  4  7  1  0  0  0
  7  8  2  0  0  0
  8  9  1  0  0  0
  9 10  2  0  0  0
  9 11  1  0  0  0
 11 12  1  0  0  0
 12 13  2  0  0  0
 13 14  1  0  0  0
 14 15  2  0  0  0
 15 16  1  0  0  0
 15 17  1  0  0  0
 17 18  2  0  0  0
  4  5  1  0  0  0
  5  6  2  0  0  0
 26 21  1  0  0  0
  6  1  1  0  0  0
 18  8  1  0  0  0
 18 12  1  0  0  0
 11 19  1  0  0  0
M  END
> <minimizedAffinity>
8.09034

> <CNNscore>
0.1265577525

> <CNNaffinity>
5.8968553543

> <CNN_VS>
0.7462927699

> <CNNaffinity_variance>
0.1748493910

$$$$
[H]/C(=C1/C(=O)N([H])c2c([H])c([H])c(C([H])([H])[H])c([H])c21)c1c([H])c([H])c(N2C([H])([H])C([H])([H])N(C([H])([H])[H])C([H])([H])C2([H])[H])c([H])c1[H]


 26 29  0  0  0  0  0  0  0  0999 V2000
   10.5292   46.2450  131.8256 C   0  0  0  0  0  0  0  0  0  0  0  0
   10.1721   46.2162  130.4937 C   0  0  0  0  0  0  0  0  0  0  0  0
    9.6794   47.3185  129.8419 C   0  0  0  0  0  0  0  0  0  0  0  0
    9.5177   48.5076  130.4888 C   0  0  0  0  0  0  0  0  0  0  0  0
    9.8713   48.5698  131.8413 C   0  0  0  0  0  0  0  0  0  0  0  0
   10.3604   47.4501  132.4617 C   0  0  0  0  0  0  0  0  0  0  0  0
    8.9852   49.6752  129.8166 C   0  0  0  0  0  0  0  0  0  0  0  0
    7.7255   49.8125  129.5450 C   0  0  0  0  0  0  0  0  0  0  0  0
    6.5982   48.9397  129.8106 C   0  0  0  0  0  0  0  0  0  0  0  0
    6.6180   47.8184  130.4205 O   0  0  0  0  0  0  0  0  0  0  0  0
    5.4530   49.5766  129.2609 N   0  0  0  0  0  0  0  0  0  0  0  0
    5.7975   50.8122  128.6602 C   0  0  0  0  0  0  0  0  0  0  0  0
    5.0532   51.7929  127.9994 C   0  0  0  0  0  0  0  0  0  0  0  0
    5.6508   52.9177  127.5041 C   0  0  0  0  0  0  0  0  0  0  0  0
    7.0144   53.0842  127.6617 C   0  0  0  0  0  0  0  0  0  0  0  0
    7.6252   54.3204  127.1092 C   0  0  0  0  0  0  0  0  0  0  0  0
    7.7495   52.1161  128.3140 C   0  0  0  0  0  0  0  0  0  0  0  0
    7.1516   50.9777  128.8164 C   0  0  0  0  0  0  0  0  0  0  0  0
    4.5018   49.1417  129.3217 H   0  0  0  0  0  0  0  0  0  0  0  0
   11.4144   43.5062  135.7267 C   0  0  0  0  0  0  0  0  0  0  0  0
   11.6964   43.0955  134.3656 N   0  0  0  0  0  0  0  0  0  0  0  0
   12.6881   43.9631  133.8125 C   0  0  0  0  0  0  0  0  0  0  0  0
   12.0326   45.3246  133.5692 C   0  0  0  0  0  0  0  0  0  0  0  0
   11.0377   45.1252  132.5360 N   0  0  0  0  0  0  0  0  0  0  0  0
   10.6010   43.7711  132.2784 C   0  0  0  0  0  0  0  0  0  0  0  0
   10.4674   43.0738  133.6325 C   0  0  0  0  0  0  0  0  0  0  0  0
 20 21  1  0  0  0
 21 22  1  0  0  0
 22 23  1  0  0  0
 23 24  1  0  0  0
 24 25  1  0  0  0
 25 26  1  0  0  0
 24  1  1  0  0  0
  1  2  2  0  0  0
  2  3  1  0  0  0
  3  4  2  0  0  0
  4  7  1  0  0  0
  7  8  2  0  0  0
  8  9  1  0  0  0
  9 10  2  0  0  0
  9 11  1  0  0  0
 11 12  1  0  0  0
 12 13  2  0  0  0
 13 14  1  0  0  0
 14 15  2  0  0  0
 15 16  1  0  0  0
 15 17  1  0  0  0
 17 18  2  0  0  0
  4  5  1  0  0  0
  5  6  2  0  0  0
 26 21  1  0  0  0
  6  1  1  0  0  0
 18  8  1  0  0  0
 18 12  1  0  0  0
 11 19  1  0  0  0
M  END
> <minimizedAffinity>
14.09026

> <CNNscore>
0.0959883407

> <CNNaffinity>
6.2734837532

> <CNN_VS>
0.6021813154

> <CNNaffinity_variance>
0.3880181313

$$$$
[H]/C(=C1/C(=O)N([H])c2c([H])c([H])c(C([H])([H])[H])c([H])c21)c1c([H])c([H])c(N2C([H])([H])C([H])([H])N(C([H])([H])[H])C([H])([H])C2([H])[H])c([H])c1[H]


 26 29  0  0  0  0  0  0  0  0999 V2000
    7.7382   50.0793  129.0309 C   0  0  0  0  0  0  0  0  0  0  0  0
    7.0258   48.8990  128.9923 C   0  0  0  0  0  0  0  0  0  0  0  0
    7.4981   47.7380  129.5505 C   0  0  0  0  0  0  0  0  0  0  0  0
    8.7085   47.6969  130.1765 C   0  0  0  0  0  0  0  0  0  0  0  0
    9.4561   48.8785  130.2330 C   0  0  0  0  0  0  0  0  0  0  0  0
    8.9546   50.0205  129.6652 C   0  0  0  0  0  0  0  0  0  0  0  0
    9.2256   46.4747  130.7574 C   0  0  0  0  0  0  0  0  0  0  0  0
    9.5995   46.3920  131.9955 C   0  0  0  0  0  0  0  0  0  0  0  0
    9.6037   47.3848  133.0525 C   0  0  0  0  0  0  0  0  0  0  0  0
    9.1930   48.5913  132.9788 O   0  0  0  0  0  0  0  0  0  0  0  0
   10.1539   46.7537  134.2005 N   0  0  0  0  0  0  0  0  0  0  0  0
   10.4983   45.4076  133.9249 C   0  0  0  0  0  0  0  0  0  0  0  0
   11.0578   44.3876  134.6988 C   0  0  0  0  0  0  0  0  0  0  0  0
   11.2913   43.1489  134.1708 C   0  0  0  0  0  0  0  0  0  0  0  0
   10.9670   42.9052  132.8490 C   0  0  0  0  0  0  0  0  0  0  0  0
   11.2365   41.5460  132.3137 C   0  0  0  0  0  0  0  0  0  0  0  0
   10.4147   43.9120  132.0846 C   0  0  0  0  0  0  0  0  0  0  0  0
   10.1766   45.1654  132.6122 C   0  0  0  0  0  0  0  0  0  0  0  0
   10.2666   47.2667  135.1070 H   0  0  0  0  0  0  0  0  0  0  0  0
    8.1289   54.6585  127.4875 C   0  0  0  0  0  0  0  0  0  0  0  0
    6.9556   53.8316  127.2869 N   0  0  0  0  0  0  0  0  0  0  0  0
    6.3884   53.5101  128.5586 C   0  0  0  0  0  0  0  0  0  0  0  0
    7.3243   52.5143  129.2478 C   0  0  0  0  0  0  0  0  0  0  0  0
    7.2859   51.2991  128.4611 N   0  0  0  0  0  0  0  0  0  0  0  0
    6.7838   51.3920  127.1083 C   0  0  0  0  0  0  0  0  0  0  0  0
    7.3308   52.6889  126.5111 C   0  0  0  0  0  0  0  0  0  0  0  0
 20 21  1  0  0  0
 21 22  1  0  0  0
 22 23  1  0  0  0
 23 24  1  0  0  0
 24 25  1  0  0  0
 25 26  1  0  0  0
 24  1  1  0  0  0
  1  2  2  0  0  0
  2  3  1  0  0  0
  3  4  2  0  0  0
  4  7  1  0  0  0
  7  8  2  0  0  0
  8  9  1  0  0  0
  9 10  2  0  0  0
  9 11  1  0  0  0
 11 12  1  0  0  0
 12 13  2  0  0  0
 13 14  1  0  0  0
 14 15  2  0  0  0
 15 16  1  0  0  0
 15 17  1  0  0  0
 17 18  2  0  0  0
  4  5  1  0  0  0
  5  6  2  0  0  0
 26 21  1  0  0  0
  6  1  1  0  0  0
 18  8  1  0  0  0
 18 12  1  0  0  0
 11 19  1  0  0  0
M  END
> <minimizedAffinity>
10.90927

> <CNNscore>
0.0939115956

> <CNNaffinity>
6.4133348465

> <CNN_VS>
0.6022865176

> <CNNaffinity_variance>
0.4719665647

$$$$
[H]c1nc(N([H])c2c([H])c([H])c(N3C([H])([H])C([H])([H])N(C([H])([H])[H])C([H])([H])C3([H])[H])c([H])c2OC([H])([H])[H])nc(N([H])c2c([H])c([H])c([H])c([H])c2S(=O)(=O)C([H])(C([H])([H])[H])C([H])([H])[H])c1Cl


 38 41  0  0  0  0  0  0  0  0999 V2000
    9.0961   46.6958  129.6969 C   0  0  0  0  0  0  0  0  0  0  0  0
    9.6252   46.1111  128.6225 N   0  0  0  0  0  0  0  0  0  0  0  0
   10.7185   45.3611  128.6103 C   0  0  0  0  0  0  0  0  0  0  0  0
   11.3828   45.1535  129.7984 C   0  0  0  0  0  0  0  0  0  0  0  0
   12.8344   44.1732  129.8541 Cl  0  0  0  0  0  0  0  0  0  0  0  0
   10.8878   45.7396  130.9918 C   0  0  0  0  0  0  0  0  0  0  0  0
    9.7906   46.4605  130.8513 N   0  0  0  0  0  0  0  0  0  0  0  0
    7.9341   47.4993  129.7406 N   0  0  0  0  0  0  0  0  0  0  0  0
    7.1506   47.0971  130.3677 H   0  0  0  0  0  0  0  0  0  0  0  0
    7.7667   49.9000  129.8213 C   0  0  0  0  0  0  0  0  0  0  0  0
    7.5544   51.1043  129.1992 C   0  0  0  0  0  0  0  0  0  0  0  0
    7.2870   51.2348  127.8672 C   0  0  0  0  0  0  0  0  0  0  0  0
    7.2346   50.0637  127.1356 C   0  0  0  0  0  0  0  0  0  0  0  0
    7.4498   48.8269  127.7616 C   0  0  0  0  0  0  0  0  0  0  0  0
    7.7148   48.7037  129.0822 C   0  0  0  0  0  0  0  0  0  0  0  0
    7.0878   52.4968  127.2662 N   0  0  0  0  0  0  0  0  0  0  0  0
    6.8328   53.7206  128.0140 C   0  0  0  0  0  0  0  0  0  0  0  0
    7.6843   54.8627  127.4959 C   0  0  0  0  0  0  0  0  0  0  0  0
    7.8467   54.8829  126.0776 N   0  0  0  0  0  0  0  0  0  0  0  0
    6.7210   55.4109  125.3645 C   0  0  0  0  0  0  0  0  0  0  0  0
    8.2906   53.5915  125.5503 C   0  0  0  0  0  0  0  0  0  0  0  0
    7.1121   52.6443  125.8304 C   0  0  0  0  0  0  0  0  0  0  0  0
    9.3755   49.7650  131.6191 C   0  0  0  0  0  0  0  0  0  0  0  0
    8.0357   49.8399  131.1871 O   0  0  0  0  0  0  0  0  0  0  0  0
   11.5898   45.4821  132.1920 N   0  0  0  0  0  0  0  0  0  0  0  0
   12.5990   45.1725  132.0628 H   0  0  0  0  0  0  0  0  0  0  0  0
   11.0563   45.6342  133.4809 C   0  0  0  0  0  0  0  0  0  0  0  0
   11.1665   46.7626  134.2619 C   0  0  0  0  0  0  0  0  0  0  0  0
   10.6669   46.8380  135.5739 C   0  0  0  0  0  0  0  0  0  0  0  0
   10.0431   45.7158  136.0775 C   0  0  0  0  0  0  0  0  0  0  0  0
    9.9197   44.5782  135.3200 C   0  0  0  0  0  0  0  0  0  0  0  0
   10.4112   44.5093  134.0308 C   0  0  0  0  0  0  0  0  0  0  0  0
   10.2116   43.0860  133.0518 S   0  0  0  0  0  0  0  0  0  0  0  0
   11.4915   42.5910  132.4437 O   0  0  0  0  0  0  0  0  0  0  0  0
    9.8174   41.9680  134.0378 O   0  0  0  0  0  0  0  0  0  0  0  0
    8.8749   43.1903  131.9208 C   0  0  0  0  0  0  0  0  0  0  0  0
    7.7000   42.3361  132.4186 C   0  0  0  0  0  0  0  0  0  0  0  0
    9.2387   42.5726  130.5654 C   0  0  0  0  0  0  0  0  0  0  0  0
 23 24  1  0  0  0
 24 10  1  0  0  0
 10 11  2  0  0  0
 11 12  1  0  0  0
 12 13  2  0  0  0
 13 14  1  0  0  0
 14 15  2  0  0  0
 15  8  1  0  0  0
  8  1  1  0  0  0
  1  2  2  0  0  0
  2  3  1  0  0  0
  3  4  2  0  0  0
  4  5  1  0  0  0
  4  6  1  0  0  0
  6 25  1  0  0  0
 25 27  1  0  0  0
 27 28  2  0  0  0
 28 29  1  0  0  0
 29 30  2  0  0  0
 30 31  1  0  0  0
 31 32  2  0  0  0
 32 33  1  0  0  0
 33 34  2  0  0  0
 33 35  2  0  0  0
 33 36  1  0  0  0
 36 37  1  0  0  0
 36 38  1  0  0  0
  6  7  2  0  0  0
 12 16  1  0  0  0
 16 17  1  0  0  0
 17 18  1  0  0  0
 18 19  1  0  0  0
 19 20  1  0  0  0
 19 21  1  0  0  0
 21 22  1  0  0  0
 15 10  1  0  0  0
  7  1  1  0  0  0
 22 16  1  0  0  0
 32 27  1  0  0  0
  8  9  1  0  0  0
 25 26  1  0  0  0
M  END
> <minimizedAffinity>
9.33647

> <CNNscore>
0.2794015110

> <CNNaffinity>
7.8222365379

> <CNN_VS>
2.1855447292

> <CNNaffinity_variance>
0.1676546186

$$$$
[H]c1nc(N([H])c2c([H])c([H])c(N3C([H])([H])C([H])([H])N(C([H])([H])[H])C([H])([H])C3([H])[H])c([H])c2OC([H])([H])[H])nc(N([H])c2c([H])c([H])c([H])c([H])c2S(=O)(=O)C([H])(C([H])([H])[H])C([H])([H])[H])c1Cl


 38 41  0  0  0  0  0  0  0  0999 V2000
    8.4900   48.4308  131.6835 C   0  0  0  0  0  0  0  0  0  0  0  0
    8.9910   48.9745  132.7924 N   0  0  0  0  0  0  0  0  0  0  0  0
   10.0448   48.5302  133.4632 C   0  0  0  0  0  0  0  0  0  0  0  0
   10.6951   47.4111  132.9933 C   0  0  0  0  0  0  0  0  0  0  0  0
   12.0944   46.7698  133.8313 Cl  0  0  0  0  0  0  0  0  0  0  0  0
   10.2279   46.7687  131.8178 C   0  0  0  0  0  0  0  0  0  0  0  0
    9.1692   47.3232  131.2568 N   0  0  0  0  0  0  0  0  0  0  0  0
    7.3702   48.8813  130.9480 N   0  0  0  0  0  0  0  0  0  0  0  0
    6.4753   48.2990  131.1181 H   0  0  0  0  0  0  0  0  0  0  0  0
    7.3547   49.6989  128.6832 C   0  0  0  0  0  0  0  0  0  0  0  0
    7.3020   50.7377  127.7885 C   0  0  0  0  0  0  0  0  0  0  0  0
    7.2104   52.0500  128.1522 C   0  0  0  0  0  0  0  0  0  0  0  0
    7.1710   52.3079  129.5092 C   0  0  0  0  0  0  0  0  0  0  0  0
    7.2245   51.2533  130.4328 C   0  0  0  0  0  0  0  0  0  0  0  0
    7.3151   49.9545  130.0664 C   0  0  0  0  0  0  0  0  0  0  0  0
    7.1457   53.0866  127.1959 N   0  0  0  0  0  0  0  0  0  0  0  0
    6.8613   54.4771  127.5240 C   0  0  0  0  0  0  0  0  0  0  0  0
    7.8227   55.4111  126.8162 C   0  0  0  0  0  0  0  0  0  0  0  0
    8.1554   55.0187  125.4844 N   0  0  0  0  0  0  0  0  0  0  0  0
    7.1503   55.3307  124.5112 C   0  0  0  0  0  0  0  0  0  0  0  0
    8.5972   53.6252  125.4091 C   0  0  0  0  0  0  0  0  0  0  0  0
    7.3496   52.8126  125.7932 C   0  0  0  0  0  0  0  0  0  0  0  0
    6.3982   47.4851  128.5313 C   0  0  0  0  0  0  0  0  0  0  0  0
    7.4477   48.3807  128.2416 O   0  0  0  0  0  0  0  0  0  0  0  0
   10.9393   45.6356  131.3599 N   0  0  0  0  0  0  0  0  0  0  0  0
   11.7590   45.3442  131.9717 H   0  0  0  0  0  0  0  0  0  0  0  0
   10.6165   44.8970  130.2114 C   0  0  0  0  0  0  0  0  0  0  0  0
   11.0930   45.1443  128.9436 C   0  0  0  0  0  0  0  0  0  0  0  0
   10.6857   44.4109  127.8155 C   0  0  0  0  0  0  0  0  0  0  0  0
    9.7654   43.4034  128.0158 C   0  0  0  0  0  0  0  0  0  0  0  0
    9.2747   43.1360  129.2691 C   0  0  0  0  0  0  0  0  0  0  0  0
    9.6787   43.8588  130.3748 C   0  0  0  0  0  0  0  0  0  0  0  0
    9.0961   43.4887  131.9710 S   0  0  0  0  0  0  0  0  0  0  0  0
    8.4362   44.6510  132.6539 O   0  0  0  0  0  0  0  0  0  0  0  0
    7.9446   42.4854  131.7595 O   0  0  0  0  0  0  0  0  0  0  0  0
   10.2637   42.6409  132.9685 C   0  0  0  0  0  0  0  0  0  0  0  0
   10.8478   43.5973  134.0183 C   0  0  0  0  0  0  0  0  0  0  0  0
   11.4810   42.1955  132.1495 C   0  0  0  0  0  0  0  0  0  0  0  0
 23 24  1  0  0  0
 24 10  1  0  0  0
 10 11  2  0  0  0
 11 12  1  0  0  0
 12 13  2  0  0  0
 13 14  1  0  0  0
 14 15  2  0  0  0
 15  8  1  0  0  0
  8  1  1  0  0  0
  1  2  2  0  0  0
  2  3  1  0  0  0
  3  4  2  0  0  0
  4  5  1  0  0  0
  4  6  1  0  0  0
  6 25  1  0  0  0
 25 27  1  0  0  0
 27 28  2  0  0  0
 28 29  1  0  0  0
 29 30  2  0  0  0
 30 31  1  0  0  0
 31 32  2  0  0  0
 32 33  1  0  0  0
 33 34  2  0  0  0
 33 35  2  0  0  0
 33 36  1  0  0  0
 36 37  1  0  0  0
 36 38  1  0  0  0
  6  7  2  0  0  0
 12 16  1  0  0  0
 16 17  1  0  0  0
 17 18  1  0  0  0
 18 19  1  0  0  0
 19 20  1  0  0  0
 19 21  1  0  0  0
 21 22  1  0  0  0
 15 10  1  0  0  0
  7  1  1  0  0  0
 22 16  1  0  0  0
 32 27  1  0  0  0
  8  9  1  0  0  0
 25 26  1  0  0  0
M  END
> <minimizedAffinity>
1.75870

> <CNNscore>
0.2100931406

> <CNNaffinity>
7.5838165283

> <CNN_VS>
1.5933078527

> <CNNaffinity_variance>
0.2914800048

$$$$
[H]c1nc(N([H])c2c([H])c([H])c(N3C([H])([H])C([H])([H])N(C([H])([H])[H])C([H])([H])C3([H])[H])c([H])c2OC([H])([H])[H])nc(N([H])c2c([H])c([H])c([H])c([H])c2S(=O)(=O)C([H])(C([H])([H])[H])C([H])([H])[H])c1Cl


 38 41  0  0  0  0  0  0  0  0999 V2000
    7.9404   46.9444  129.5269 C   0  0  0  0  0  0  0  0  0  0  0  0
    8.2598   46.9239  128.2331 N   0  0  0  0  0  0  0  0  0  0  0  0
    9.3915   46.4572  127.7237 C   0  0  0  0  0  0  0  0  0  0  0  0
   10.3345   45.9440  128.5859 C   0  0  0  0  0  0  0  0  0  0  0  0
   11.8524   45.3112  127.9802 Cl  0  0  0  0  0  0  0  0  0  0  0  0
   10.0759   45.9272  129.9807 C   0  0  0  0  0  0  0  0  0  0  0  0
    8.9076   46.4247  130.3422 N   0  0  0  0  0  0  0  0  0  0  0  0
    6.7442   47.4345  130.0984 N   0  0  0  0  0  0  0  0  0  0  0  0
    6.5386   47.0385  131.0832 H   0  0  0  0  0  0  0  0  0  0  0  0
    5.9399   49.6950  129.8952 C   0  0  0  0  0  0  0  0  0  0  0  0
    5.0695   50.6096  129.3583 C   0  0  0  0  0  0  0  0  0  0  0  0
    4.0840   50.2899  128.4697 C   0  0  0  0  0  0  0  0  0  0  0  0
    3.9884   48.9579  128.1144 C   0  0  0  0  0  0  0  0  0  0  0  0
    4.8731   48.0144  128.6576 C   0  0  0  0  0  0  0  0  0  0  0  0
    5.8481   48.3371  129.5377 C   0  0  0  0  0  0  0  0  0  0  0  0
    3.2182   51.2672  127.9323 N   0  0  0  0  0  0  0  0  0  0  0  0
    3.6760   52.4758  127.2604 C   0  0  0  0  0  0  0  0  0  0  0  0
    2.9079   52.7080  125.9743 C   0  0  0  0  0  0  0  0  0  0  0  0
    1.5195   52.3837  126.0483 N   0  0  0  0  0  0  0  0  0  0  0  0
    0.7170   53.3790  126.6964 C   0  0  0  0  0  0  0  0  0  0  0  0
    1.2898   51.0407  126.5834 C   0  0  0  0  0  0  0  0  0  0  0  0
    1.7855   51.1237  128.0366 C   0  0  0  0  0  0  0  0  0  0  0  0
    7.8157   51.1204  130.4325 C   0  0  0  0  0  0  0  0  0  0  0  0
    6.9242   50.0914  130.7982 O   0  0  0  0  0  0  0  0  0  0  0  0
   11.0634   45.3713  130.8266 N   0  0  0  0  0  0  0  0  0  0  0  0
   11.9951   45.8842  130.8244 H   0  0  0  0  0  0  0  0  0  0  0  0
   10.8756   44.2498  131.6487 C   0  0  0  0  0  0  0  0  0  0  0  0
   10.9740   42.9379  131.2431 C   0  0  0  0  0  0  0  0  0  0  0  0
   10.7123   41.8508  132.0954 C   0  0  0  0  0  0  0  0  0  0  0  0
   10.3410   42.1400  133.3918 C   0  0  0  0  0  0  0  0  0  0  0  0
   10.2355   43.4388  133.8217 C   0  0  0  0  0  0  0  0  0  0  0  0
   10.4948   44.5037  132.9808 C   0  0  0  0  0  0  0  0  0  0  0  0
   10.4105   46.1491  133.5374 S   0  0  0  0  0  0  0  0  0  0  0  0
   11.5635   46.9963  133.0841 O   0  0  0  0  0  0  0  0  0  0  0  0
    9.1968   46.7613  132.8097 O   0  0  0  0  0  0  0  0  0  0  0  0
   10.0414   46.2971  135.2459 C   0  0  0  0  0  0  0  0  0  0  0  0
   10.2208   44.9391  135.9399 C   0  0  0  0  0  0  0  0  0  0  0  0
    8.5643   46.6405  135.4719 C   0  0  0  0  0  0  0  0  0  0  0  0
 23 24  1  0  0  0
 24 10  1  0  0  0
 10 11  2  0  0  0
 11 12  1  0  0  0
 12 13  2  0  0  0
 13 14  1  0  0  0
 14 15  2  0  0  0
 15  8  1  0  0  0
  8  1  1  0  0  0
  1  2  2  0  0  0
  2  3  1  0  0  0
  3  4  2  0  0  0
  4  5  1  0  0  0
  4  6  1  0  0  0
  6 25  1  0  0  0
 25 27  1  0  0  0
 27 28  2  0  0  0
 28 29  1  0  0  0
 29 30  2  0  0  0
 30 31  1  0  0  0
 31 32  2  0  0  0
 32 33  1  0  0  0
 33 34  2  0  0  0
 33 35  2  0  0  0
 33 36  1  0  0  0
 36 37  1  0  0  0
 36 38  1  0  0  0
  6  7  2  0  0  0
 12 16  1  0  0  0
 16 17  1  0  0  0
 17 18  1  0  0  0
 18 19  1  0  0  0
 19 20  1  0  0  0
 19 21  1  0  0  0
 21 22  1  0  0  0
 15 10  1  0  0  0
  7  1  1  0  0  0
 22 16  1  0  0  0
 32 27  1  0  0  0
  8  9  1  0  0  0
 25 26  1  0  0  0
M  END
> <minimizedAffinity>
19.24705

> <CNNscore>
0.2021370679

> <CNNaffinity>
7.2561759949

> <CNN_VS>
1.4667421579

> <CNNaffinity_variance>
0.3379085362

$$$$
[H]c1nc(N([H])c2c([H])c([H])c(N3C([H])([H])C([H])([H])N(C([H])([H])[H])C([H])([H])C3([H])[H])c([H])c2OC([H])([H])[H])nc(N([H])c2c([H])c([H])c([H])c([H])c2S(=O)(=O)C([H])(C([H])([H])[H])C([H])([H])[H])c1Cl


 38 41  0  0  0  0  0  0  0  0999 V2000
   10.0946   44.8596  134.3097 C   0  0  0  0  0  0  0  0  0  0  0  0
   10.7097   44.5630  135.4543 N   0  0  0  0  0  0  0  0  0  0  0  0
   11.8809   43.9517  135.5665 C   0  0  0  0  0  0  0  0  0  0  0  0
   12.5384   43.5810  134.4149 C   0  0  0  0  0  0  0  0  0  0  0  0
   14.0896   42.7690  134.4905 Cl  0  0  0  0  0  0  0  0  0  0  0  0
   11.9544   43.8585  133.1521 C   0  0  0  0  0  0  0  0  0  0  0  0
   10.7861   44.4720  133.1953 N   0  0  0  0  0  0  0  0  0  0  0  0
    8.8485   45.5094  134.1590 N   0  0  0  0  0  0  0  0  0  0  0  0
    8.1474   45.2950  134.9536 H   0  0  0  0  0  0  0  0  0  0  0  0
    8.9781   47.6670  133.0979 C   0  0  0  0  0  0  0  0  0  0  0  0
    8.6115   48.5294  132.0958 C   0  0  0  0  0  0  0  0  0  0  0  0
    7.7483   48.2028  131.0902 C   0  0  0  0  0  0  0  0  0  0  0  0
    7.2341   46.9205  131.1170 C   0  0  0  0  0  0  0  0  0  0  0  0
    7.6020   46.0307  132.1372 C   0  0  0  0  0  0  0  0  0  0  0  0
    8.4583   46.3598  133.1311 C   0  0  0  0  0  0  0  0  0  0  0  0
    7.4090   49.1192  130.0711 N   0  0  0  0  0  0  0  0  0  0  0  0
    6.3096   48.9225  129.1359 C   0  0  0  0  0  0  0  0  0  0  0  0
    5.4837   50.1856  128.9931 C   0  0  0  0  0  0  0  0  0  0  0  0
    6.2451   51.3933  128.9960 N   0  0  0  0  0  0  0  0  0  0  0  0
    6.8896   51.6849  127.7493 C   0  0  0  0  0  0  0  0  0  0  0  0
    7.1624   51.4697  130.1342 C   0  0  0  0  0  0  0  0  0  0  0  0
    8.1679   50.3332  129.8854 C   0  0  0  0  0  0  0  0  0  0  0  0
   10.5907   49.2645  133.9263 C   0  0  0  0  0  0  0  0  0  0  0  0
    9.8659   48.0671  134.0944 O   0  0  0  0  0  0  0  0  0  0  0  0
   12.6749   43.4792  131.9960 N   0  0  0  0  0  0  0  0  0  0  0  0
   13.4692   42.7932  132.1684 H   0  0  0  0  0  0  0  0  0  0  0  0
   12.3905   43.9189  130.6942 C   0  0  0  0  0  0  0  0  0  0  0  0
   13.1860   44.7543  129.9426 C   0  0  0  0  0  0  0  0  0  0  0  0
   12.8210   45.2156  128.6657 C   0  0  0  0  0  0  0  0  0  0  0  0
   11.6050   44.7975  128.1670 C   0  0  0  0  0  0  0  0  0  0  0  0
   10.7933   43.9647  128.8953 C   0  0  0  0  0  0  0  0  0  0  0  0
   11.1567   43.5132  130.1493 C   0  0  0  0  0  0  0  0  0  0  0  0
   10.1523   42.4180  131.0526 S   0  0  0  0  0  0  0  0  0  0  0  0
   10.8996   41.2458  131.6184 O   0  0  0  0  0  0  0  0  0  0  0  0
    9.7109   43.2087  132.3004 O   0  0  0  0  0  0  0  0  0  0  0  0
    8.6623   41.9890  130.2325 C   0  0  0  0  0  0  0  0  0  0  0  0
    7.4779   42.1072  131.2027 C   0  0  0  0  0  0  0  0  0  0  0  0
    8.6579   40.5137  129.8146 C   0  0  0  0  0  0  0  0  0  0  0  0
 23 24  1  0  0  0
 24 10  1  0  0  0
 10 11  2  0  0  0
 11 12  1  0  0  0
 12 13  2  0  0  0
 13 14  1  0  0  0
 14 15  2  0  0  0
 15  8  1  0  0  0
  8  1  1  0  0  0
  1  2  2  0  0  0
  2  3  1  0  0  0
  3  4  2  0  0  0
  4  5  1  0  0  0
  4  6  1  0  0  0
  6 25  1  0  0  0
 25 27  1  0  0  0
 27 28  2  0  0  0
 28 29  1  0  0  0
 29 30  2  0  0  0
 30 31  1  0  0  0
 31 32  2  0  0  0
 32 33  1  0  0  0
 33 34  2  0  0  0
 33 35  2  0  0  0
 33 36  1  0  0  0
 36 37  1  0  0  0
 36 38  1  0  0  0
  6  7  2  0  0  0
 12 16  1  0  0  0
 16 17  1  0  0  0
 17 18  1  0  0  0
 18 19  1  0  0  0
 19 20  1  0  0  0
 19 21  1  0  0  0
 21 22  1  0  0  0
 15 10  1  0  0  0
  7  1  1  0  0  0
 22 16  1  0  0  0
 32 27  1  0  0  0
  8  9  1  0  0  0
 25 26  1  0  0  0
M  END
> <minimizedAffinity>
10.17925

> <CNNscore>
0.1504032165

> <CNNaffinity>
7.7102689743

> <CNN_VS>
1.1596492529

> <CNNaffinity_variance>
0.6512120962

$$$$
[H]c1nc(N([H])c2c([H])c([H])c(N3C([H])([H])C([H])([H])N(C([H])([H])[H])C([H])([H])C3([H])[H])c([H])c2OC([H])([H])[H])nc(N([H])c2c([H])c([H])c([H])c([H])c2S(=O)(=O)C([H])(C([H])([H])[H])C([H])([H])[H])c1Cl


 38 41  0  0  0  0  0  0  0  0999 V2000
   11.0932   43.5776  131.0280 C   0  0  0  0  0  0  0  0  0  0  0  0
   11.8610   42.5397  131.3589 N   0  0  0  0  0  0  0  0  0  0  0  0
   12.5942   42.4403  132.4591 C   0  0  0  0  0  0  0  0  0  0  0  0
   12.5777   43.4874  133.3531 C   0  0  0  0  0  0  0  0  0  0  0  0
   13.5237   43.4222  134.8270 Cl  0  0  0  0  0  0  0  0  0  0  0  0
   11.7868   44.6328  133.0790 C   0  0  0  0  0  0  0  0  0  0  0  0
   11.1100   44.5910  131.9462 N   0  0  0  0  0  0  0  0  0  0  0  0
   10.3020   43.7117  129.8645 N   0  0  0  0  0  0  0  0  0  0  0  0
   10.4483   42.9180  129.1452 H   0  0  0  0  0  0  0  0  0  0  0  0
    8.2335   44.8411  130.3585 C   0  0  0  0  0  0  0  0  0  0  0  0
    7.3194   45.8295  130.0943 C   0  0  0  0  0  0  0  0  0  0  0  0
    7.4562   46.7419  129.0884 C   0  0  0  0  0  0  0  0  0  0  0  0
    8.5943   46.6317  128.3124 C   0  0  0  0  0  0  0  0  0  0  0  0
    9.5353   45.6247  128.5737 C   0  0  0  0  0  0  0  0  0  0  0  0
    9.3946   44.7233  129.5722 C   0  0  0  0  0  0  0  0  0  0  0  0
    6.4955   47.7512  128.8608 N   0  0  0  0  0  0  0  0  0  0  0  0
    5.0588   47.5123  128.8312 C   0  0  0  0  0  0  0  0  0  0  0  0
    4.3164   48.5568  129.6410 C   0  0  0  0  0  0  0  0  0  0  0  0
    4.8490   49.8771  129.5330 N   0  0  0  0  0  0  0  0  0  0  0  0
    4.4814   50.5625  128.3290 C   0  0  0  0  0  0  0  0  0  0  0  0
    6.2904   49.9176  129.7850 C   0  0  0  0  0  0  0  0  0  0  0  0
    6.8994   49.1165  128.6224 C   0  0  0  0  0  0  0  0  0  0  0  0
    8.0689   44.4142  132.7312 C   0  0  0  0  0  0  0  0  0  0  0  0
    8.0304   43.9420  131.4034 O   0  0  0  0  0  0  0  0  0  0  0  0
   11.7834   45.6746  134.0352 N   0  0  0  0  0  0  0  0  0  0  0  0
   12.7468   45.9880  134.3592 H   0  0  0  0  0  0  0  0  0  0  0  0
   10.6313   46.3029  134.5319 C   0  0  0  0  0  0  0  0  0  0  0  0
    9.9795   45.9682  135.6974 C   0  0  0  0  0  0  0  0  0  0  0  0
    8.7901   46.5900  136.1158 C   0  0  0  0  0  0  0  0  0  0  0  0
    8.2735   47.5767  135.3024 C   0  0  0  0  0  0  0  0  0  0  0  0
    8.9034   47.9297  134.1355 C   0  0  0  0  0  0  0  0  0  0  0  0
   10.0727   47.3166  133.7292 C   0  0  0  0  0  0  0  0  0  0  0  0
   10.8992   47.7970  132.2765 S   0  0  0  0  0  0  0  0  0  0  0  0
   12.3633   47.4670  132.2815 O   0  0  0  0  0  0  0  0  0  0  0  0
   10.3236   46.8955  131.1659 O   0  0  0  0  0  0  0  0  0  0  0  0
   10.5364   49.4363  131.7685 C   0  0  0  0  0  0  0  0  0  0  0  0
    9.7038   50.1462  132.8459 C   0  0  0  0  0  0  0  0  0  0  0  0
    9.6347   49.4515  130.5284 C   0  0  0  0  0  0  0  0  0  0  0  0
 23 24  1  0  0  0
 24 10  1  0  0  0
 10 11  2  0  0  0
 11 12  1  0  0  0
 12 13  2  0  0  0
 13 14  1  0  0  0
 14 15  2  0  0  0
 15  8  1  0  0  0
  8  1  1  0  0  0
  1  2  2  0  0  0
  2  3  1  0  0  0
  3  4  2  0  0  0
  4  5  1  0  0  0
  4  6  1  0  0  0
  6 25  1  0  0  0
 25 27  1  0  0  0
 27 28  2  0  0  0
 28 29  1  0  0  0
 29 30  2  0  0  0
 30 31  1  0  0  0
 31 32  2  0  0  0
 32 33  1  0  0  0
 33 34  2  0  0  0
 33 35  2  0  0  0
 33 36  1  0  0  0
 36 37  1  0  0  0
 36 38  1  0  0  0
  6  7  2  0  0  0
 12 16  1  0  0  0
 16 17  1  0  0  0
 17 18  1  0  0  0
 18 19  1  0  0  0
 19 20  1  0  0  0
 19 21  1  0  0  0
 21 22  1  0  0  0
 15 10  1  0  0  0
  7  1  1  0  0  0
 22 16  1  0  0  0
 32 27  1  0  0  0
  8  9  1  0  0  0
 25 26  1  0  0  0
M  END
> <minimizedAffinity>
6.85676

> <CNNscore>
0.1392203569

> <CNNaffinity>
7.5356330872

> <CNN_VS>
1.0491135120

> <CNNaffinity_variance>
0.0630333200

$$$$
[H]c1nc(N([H])c2c([H])c([H])c(N3C([H])([H])C([H])([H])N(C([H])([H])[H])C([H])([H])C3([H])[H])c([H])c2OC([H])([H])[H])nc(N([H])c2c([H])c([H])c([H])c([H])c2S(=O)(=O)C([H])(C([H])([H])[H])C([H])([H])[H])c1Cl


 38 41  0  0  0  0  0  0  0  0999 V2000
    8.1057   48.8214  131.6007 C   0  0  0  0  0  0  0  0  0  0  0  0
    8.8032   49.4315  132.5585 N   0  0  0  0  0  0  0  0  0  0  0  0
    9.8047   48.8981  133.2444 C   0  0  0  0  0  0  0  0  0  0  0  0
   10.1750   47.6026  132.9609 C   0  0  0  0  0  0  0  0  0  0  0  0
   11.4898   46.8358  133.8297 Cl  0  0  0  0  0  0  0  0  0  0  0  0
    9.4849   46.8789  131.9546 C   0  0  0  0  0  0  0  0  0  0  0  0
    8.5104   47.5383  131.3557 N   0  0  0  0  0  0  0  0  0  0  0  0
    7.0352   49.3634  130.8536 N   0  0  0  0  0  0  0  0  0  0  0  0
    6.0794   48.9064  131.0689 H   0  0  0  0  0  0  0  0  0  0  0  0
    7.2864   50.0457  128.5581 C   0  0  0  0  0  0  0  0  0  0  0  0
    7.3490   51.0301  127.6044 C   0  0  0  0  0  0  0  0  0  0  0  0
    7.2345   52.3622  127.8787 C   0  0  0  0  0  0  0  0  0  0  0  0
    7.0457   52.7002  129.2052 C   0  0  0  0  0  0  0  0  0  0  0  0
    6.9805   51.7017  130.1885 C   0  0  0  0  0  0  0  0  0  0  0  0
    7.0943   50.3830  129.9107 C   0  0  0  0  0  0  0  0  0  0  0  0
    7.2921   53.3408  126.8626 N   0  0  0  0  0  0  0  0  0  0  0  0
    7.3906   54.7715  127.1185 C   0  0  0  0  0  0  0  0  0  0  0  0
    8.4443   55.4111  126.2362 C   0  0  0  0  0  0  0  0  0  0  0  0
    8.4970   54.8921  124.9072 N   0  0  0  0  0  0  0  0  0  0  0  0
    7.4755   55.3975  124.0378 C   0  0  0  0  0  0  0  0  0  0  0  0
    8.5825   53.4310  124.8837 C   0  0  0  0  0  0  0  0  0  0  0  0
    7.2395   52.9649  125.4698 C   0  0  0  0  0  0  0  0  0  0  0  0
    6.3573   47.8157  128.5066 C   0  0  0  0  0  0  0  0  0  0  0  0
    7.4110   48.7031  128.2071 O   0  0  0  0  0  0  0  0  0  0  0  0
    9.9131   45.5590  131.6822 N   0  0  0  0  0  0  0  0  0  0  0  0
   10.3237   45.0406  132.5151 H   0  0  0  0  0  0  0  0  0  0  0  0
    9.8029   44.9216  130.4370 C   0  0  0  0  0  0  0  0  0  0  0  0
    8.6764   44.9059  129.6457 C   0  0  0  0  0  0  0  0  0  0  0  0
    8.6009   44.1963  128.4344 C   0  0  0  0  0  0  0  0  0  0  0  0
    9.7205   43.4914  128.0446 C   0  0  0  0  0  0  0  0  0  0  0  0
   10.8562   43.4905  128.8147 C   0  0  0  0  0  0  0  0  0  0  0  0
   10.9260   44.1903  130.0037 C   0  0  0  0  0  0  0  0  0  0  0  0
   12.3807   44.2312  130.9557 S   0  0  0  0  0  0  0  0  0  0  0  0
   13.6368   44.1962  130.1349 O   0  0  0  0  0  0  0  0  0  0  0  0
   12.4032   45.6313  131.6013 O   0  0  0  0  0  0  0  0  0  0  0  0
   12.3737   43.1071  132.3023 C   0  0  0  0  0  0  0  0  0  0  0  0
   11.0830   42.2754  132.2832 C   0  0  0  0  0  0  0  0  0  0  0  0
   12.3245   43.8436  133.6462 C   0  0  0  0  0  0  0  0  0  0  0  0
 23 24  1  0  0  0
 24 10  1  0  0  0
 10 11  2  0  0  0
 11 12  1  0  0  0
 12 13  2  0  0  0
 13 14  1  0  0  0
 14 15  2  0  0  0
 15  8  1  0  0  0
  8  1  1  0  0  0
  1  2  2  0  0  0
  2  3  1  0  0  0
  3  4  2  0  0  0
  4  5  1  0  0  0
  4  6  1  0  0  0
  6 25  1  0  0  0
 25 27  1  0  0  0
 27 28  2  0  0  0
 28 29  1  0  0  0
 29 30  2  0  0  0
 30 31  1  0  0  0
 31 32  2  0  0  0
 32 33  1  0  0  0
 33 34  2  0  0  0
 33 35  2  0  0  0
 33 36  1  0  0  0
 36 37  1  0  0  0
 36 38  1  0  0  0
  6  7  2  0  0  0
 12 16  1  0  0  0
 16 17  1  0  0  0
 17 18  1  0  0  0
 18 19  1  0  0  0
 19 20  1  0  0  0
 19 21  1  0  0  0
 21 22  1  0  0  0
 15 10  1  0  0  0
  7  1  1  0  0  0
 22 16  1  0  0  0
 32 27  1  0  0  0
  8  9  1  0  0  0
 25 26  1  0  0  0
M  END
> <minimizedAffinity>
2.88570

> <CNNscore>
0.1244997904

> <CNNaffinity>
7.3312559128

> <CNN_VS>
0.9127398133

> <CNNaffinity_variance>
0.2584599555

$$$$
[H]c1nc(N([H])c2c([H])c([H])c(N3C([H])([H])C([H])([H])N(C([H])([H])[H])C([H])([H])C3([H])[H])c([H])c2OC([H])([H])[H])nc(N([H])c2c([H])c([H])c([H])c([H])c2S(=O)(=O)C([H])(C([H])([H])[H])C([H])([H])[H])c1Cl


 38 41  0  0  0  0  0  0  0  0999 V2000
    8.8375   43.1652  130.5603 C   0  0  0  0  0  0  0  0  0  0  0  0
    9.1050   41.8630  130.6554 N   0  0  0  0  0  0  0  0  0  0  0  0
    9.4542   41.2246  131.7637 C   0  0  0  0  0  0  0  0  0  0  0  0
    9.5563   41.9479  132.9308 C   0  0  0  0  0  0  0  0  0  0  0  0
   10.0138   41.1674  134.4318 Cl  0  0  0  0  0  0  0  0  0  0  0  0
    9.2887   43.3411  132.9196 C   0  0  0  0  0  0  0  0  0  0  0  0
    8.9522   43.8397  131.7444 N   0  0  0  0  0  0  0  0  0  0  0  0
    8.4634   43.8723  129.3950 N   0  0  0  0  0  0  0  0  0  0  0  0
    8.5156   43.2806  128.4917 H   0  0  0  0  0  0  0  0  0  0  0  0
    9.0294   46.2020  129.1706 C   0  0  0  0  0  0  0  0  0  0  0  0
    8.6554   47.5189  129.0808 C   0  0  0  0  0  0  0  0  0  0  0  0
    7.3591   47.9446  129.1142 C   0  0  0  0  0  0  0  0  0  0  0  0
    6.3955   46.9631  129.2474 C   0  0  0  0  0  0  0  0  0  0  0  0
    6.7669   45.6136  129.3404 C   0  0  0  0  0  0  0  0  0  0  0  0
    8.0534   45.1975  129.3064 C   0  0  0  0  0  0  0  0  0  0  0  0
    7.0193   49.3107  129.0052 N   0  0  0  0  0  0  0  0  0  0  0  0
    5.6513   49.8107  129.0237 C   0  0  0  0  0  0  0  0  0  0  0  0
    5.5225   51.0107  129.9408 C   0  0  0  0  0  0  0  0  0  0  0  0
    6.6359   51.9038  129.9057 N   0  0  0  0  0  0  0  0  0  0  0  0
    6.6493   52.7824  128.7733 C   0  0  0  0  0  0  0  0  0  0  0  0
    7.9112   51.2103  130.0941 C   0  0  0  0  0  0  0  0  0  0  0  0
    8.0425   50.3172  128.8493 C   0  0  0  0  0  0  0  0  0  0  0  0
   10.8602   45.1394  128.0052 C   0  0  0  0  0  0  0  0  0  0  0  0
   10.3736   45.8374  129.1293 O   0  0  0  0  0  0  0  0  0  0  0  0
    9.3849   44.0398  134.1453 N   0  0  0  0  0  0  0  0  0  0  0  0
    9.4744   43.4224  135.0067 H   0  0  0  0  0  0  0  0  0  0  0  0
    9.3958   45.4371  134.2726 C   0  0  0  0  0  0  0  0  0  0  0  0
    8.3020   46.2201  134.5659 C   0  0  0  0  0  0  0  0  0  0  0  0
    8.3567   47.6239  134.6183 C   0  0  0  0  0  0  0  0  0  0  0  0
    9.5739   48.2186  134.3591 C   0  0  0  0  0  0  0  0  0  0  0  0
   10.6796   47.4614  134.0644 C   0  0  0  0  0  0  0  0  0  0  0  0
   10.6212   46.0821  134.0152 C   0  0  0  0  0  0  0  0  0  0  0  0
   12.0324   45.1188  133.6913 S   0  0  0  0  0  0  0  0  0  0  0  0
   13.3183   45.7871  134.0818 O   0  0  0  0  0  0  0  0  0  0  0  0
   11.9345   43.9197  134.6556 O   0  0  0  0  0  0  0  0  0  0  0  0
   12.0509   44.4135  132.0853 C   0  0  0  0  0  0  0  0  0  0  0  0
   12.6346   42.9944  132.1434 C   0  0  0  0  0  0  0  0  0  0  0  0
   13.0022   45.1715  131.1518 C   0  0  0  0  0  0  0  0  0  0  0  0
 23 24  1  0  0  0
 24 10  1  0  0  0
 10 11  2  0  0  0
 11 12  1  0  0  0
 12 13  2  0  0  0
 13 14  1  0  0  0
 14 15  2  0  0  0
 15  8  1  0  0  0
  8  1  1  0  0  0
  1  2  2  0  0  0
  2  3  1  0  0  0
  3  4  2  0  0  0
  4  5  1  0  0  0
  4  6  1  0  0  0
  6 25  1  0  0  0
 25 27  1  0  0  0
 27 28  2  0  0  0
 28 29  1  0  0  0
 29 30  2  0  0  0
 30 31  1  0  0  0
 31 32  2  0  0  0
 32 33  1  0  0  0
 33 34  2  0  0  0
 33 35  2  0  0  0
 33 36  1  0  0  0
 36 37  1  0  0  0
 36 38  1  0  0  0
  6  7  2  0  0  0
 12 16  1  0  0  0
 16 17  1  0  0  0
 17 18  1  0  0  0
 18 19  1  0  0  0
 19 20  1  0  0  0
 19 21  1  0  0  0
 21 22  1  0  0  0
 15 10  1  0  0  0
  7  1  1  0  0  0
 22 16  1  0  0  0
 32 27  1  0  0  0
  8  9  1  0  0  0
 25 26  1  0  0  0
M  END
> <minimizedAffinity>
8.29650

> <CNNscore>
0.0897899792

> <CNNaffinity>
7.6514701843

> <CNN_VS>
0.6870253682

> <CNNaffinity_variance>
0.2484715730

$$$$
[H]c1nc(N([H])c2c([H])c([H])c(N3C([H])([H])C([H])([H])N(C([H])([H])[H])C([H])([H])C3([H])[H])c([H])c2OC([H])([H])[H])nc(N([H])c2c([H])c([H])c([H])c([H])c2S(=O)(=O)C([H])(C([H])([H])[H])C([H])([H])[H])c1Cl


 38 41  0  0  0  0  0  0  0  0999 V2000
    7.5327   46.9516  130.3642 C   0  0  0  0  0  0  0  0  0  0  0  0
    7.4749   46.3786  129.1622 N   0  0  0  0  0  0  0  0  0  0  0  0
    7.8692   45.1461  128.8738 C   0  0  0  0  0  0  0  0  0  0  0  0
    8.3871   44.3708  129.8870 C   0  0  0  0  0  0  0  0  0  0  0  0
    8.9278   42.7332  129.5754 Cl  0  0  0  0  0  0  0  0  0  0  0  0
    8.4851   44.9027  131.1986 C   0  0  0  0  0  0  0  0  0  0  0  0
    8.0537   46.1429  131.3362 N   0  0  0  0  0  0  0  0  0  0  0  0
    7.1207   48.2609  130.7014 N   0  0  0  0  0  0  0  0  0  0  0  0
    6.8241   48.3708  131.7352 H   0  0  0  0  0  0  0  0  0  0  0  0
    7.9695   50.4260  130.0770 C   0  0  0  0  0  0  0  0  0  0  0  0
    7.9378   51.5339  129.2683 C   0  0  0  0  0  0  0  0  0  0  0  0
    7.0611   51.6952  128.2347 C   0  0  0  0  0  0  0  0  0  0  0  0
    6.1689   50.6617  128.0215 C   0  0  0  0  0  0  0  0  0  0  0  0
    6.1925   49.5245  128.8426 C   0  0  0  0  0  0  0  0  0  0  0  0
    7.0639   49.3700  129.8654 C   0  0  0  0  0  0  0  0  0  0  0  0
    7.0730   52.8478  127.4193 N   0  0  0  0  0  0  0  0  0  0  0  0
    6.9714   54.2069  127.9335 C   0  0  0  0  0  0  0  0  0  0  0  0
    8.0008   55.1122  127.2867 C   0  0  0  0  0  0  0  0  0  0  0  0
    8.2196   54.8612  125.8983 N   0  0  0  0  0  0  0  0  0  0  0  0
    7.2122   55.4064  125.0366 C   0  0  0  0  0  0  0  0  0  0  0  0
    8.4893   53.4489  125.6242 C   0  0  0  0  0  0  0  0  0  0  0  0
    7.1746   52.7369  125.9835 C   0  0  0  0  0  0  0  0  0  0  0  0
   10.0643   49.5670  130.9212 C   0  0  0  0  0  0  0  0  0  0  0  0
    8.8930   50.3270  131.1157 O   0  0  0  0  0  0  0  0  0  0  0  0
    9.0031   44.0637  132.2122 N   0  0  0  0  0  0  0  0  0  0  0  0
    9.0078   43.0267  131.9760 H   0  0  0  0  0  0  0  0  0  0  0  0
    9.5116   44.5114  133.4409 C   0  0  0  0  0  0  0  0  0  0  0  0
    8.7766   45.1152  134.4362 C   0  0  0  0  0  0  0  0  0  0  0  0
    9.3500   45.6031  135.6234 C   0  0  0  0  0  0  0  0  0  0  0  0
   10.7135   45.4583  135.7722 C   0  0  0  0  0  0  0  0  0  0  0  0
   11.4694   44.8600  134.7956 C   0  0  0  0  0  0  0  0  0  0  0  0
   10.9011   44.3810  133.6311 C   0  0  0  0  0  0  0  0  0  0  0  0
   11.8496   43.5778  132.4148 S   0  0  0  0  0  0  0  0  0  0  0  0
   12.8963   42.6612  132.9777 O   0  0  0  0  0  0  0  0  0  0  0  0
   10.8705   42.6231  131.7024 O   0  0  0  0  0  0  0  0  0  0  0  0
   12.4382   44.6503  131.1577 C   0  0  0  0  0  0  0  0  0  0  0  0
   11.7974   46.0374  131.3106 C   0  0  0  0  0  0  0  0  0  0  0  0
   11.9907   44.1825  129.7678 C   0  0  0  0  0  0  0  0  0  0  0  0
 23 24  1  0  0  0
 24 10  1  0  0  0
 10 11  2  0  0  0
 11 12  1  0  0  0
 12 13  2  0  0  0
 13 14  1  0  0  0
 14 15  2  0  0  0
 15  8  1  0  0  0
  8  1  1  0  0  0
  1  2  2  0  0  0
  2  3  1  0  0  0
  3  4  2  0  0  0
  4  5  1  0  0  0
  4  6  1  0  0  0
  6 25  1  0  0  0
 25 27  1  0  0  0
 27 28  2  0  0  0
 28 29  1  0  0  0
 29 30  2  0  0  0
 30 31  1  0  0  0
 31 32  2  0  0  0
 32 33  1  0  0  0
 33 34  2  0  0  0
 33 35  2  0  0  0
 33 36  1  0  0  0
 36 37  1  0  0  0
 36 38  1  0  0  0
  6  7  2  0  0  0
 12 16  1  0  0  0
 16 17  1  0  0  0
 17 18  1  0  0  0
 18 19  1  0  0  0
 19 20  1  0  0  0
 19 21  1  0  0  0
 21 22  1  0  0  0
 15 10  1  0  0  0
  7  1  1  0  0  0
 22 16  1  0  0  0
 32 27  1  0  0  0
  8  9  1  0  0  0
 25 26  1  0  0  0
M  END
> <minimizedAffinity>
7.30061

> <CNNscore>
0.0787890032

> <CNNaffinity>
7.5797562599

> <CNN_VS>
0.5972014666

> <CNNaffinity_variance>
0.5903384089

$$$$
[H]c1nc(N([H])c2c([H])c([H])c(N3C([H])([H])C([H])([H])N(C([H])([H])[H])C([H])([H])C3([H])[H])c([H])c2OC([H])([H])[H])nc(N([H])c2c([H])c([H])c([H])c([H])c2S(=O)(=O)C([H])(C([H])([H])[H])C([H])([H])[H])c1Cl


 38 41  0  0  0  0  0  0  0  0999 V2000
   11.7016   46.6069  133.4345 C   0  0  0  0  0  0  0  0  0  0  0  0
   12.2911   46.0857  134.5102 N   0  0  0  0  0  0  0  0  0  0  0  0
   12.7915   44.8612  134.6003 C   0  0  0  0  0  0  0  0  0  0  0  0
   12.7068   44.0372  133.5005 C   0  0  0  0  0  0  0  0  0  0  0  0
   13.3472   42.4066  133.5509 Cl  0  0  0  0  0  0  0  0  0  0  0  0
   12.0941   44.5122  132.3123 C   0  0  0  0  0  0  0  0  0  0  0  0
   11.6418   45.7512  132.3693 N   0  0  0  0  0  0  0  0  0  0  0  0
   11.1599   47.9063  133.3089 N   0  0  0  0  0  0  0  0  0  0  0  0
   11.6164   48.6332  133.9662 H   0  0  0  0  0  0  0  0  0  0  0  0
    8.8739   47.7175  132.5762 C   0  0  0  0  0  0  0  0  0  0  0  0
    7.8485   48.1028  131.7502 C   0  0  0  0  0  0  0  0  0  0  0  0
    7.9689   49.0609  130.7856 C   0  0  0  0  0  0  0  0  0  0  0  0
    9.2108   49.6546  130.6639 C   0  0  0  0  0  0  0  0  0  0  0  0
   10.2663   49.2680  131.5032 C   0  0  0  0  0  0  0  0  0  0  0  0
   10.1410   48.3179  132.4577 C   0  0  0  0  0  0  0  0  0  0  0  0
    6.8820   49.4353  129.9659 N   0  0  0  0  0  0  0  0  0  0  0  0
    6.2517   48.5474  128.9982 C   0  0  0  0  0  0  0  0  0  0  0  0
    4.7409   48.6145  129.1010 C   0  0  0  0  0  0  0  0  0  0  0  0
    4.2229   49.9209  129.3530 N   0  0  0  0  0  0  0  0  0  0  0  0
    4.1726   50.7664  128.1966 C   0  0  0  0  0  0  0  0  0  0  0  0
    4.8744   50.5670  130.4935 C   0  0  0  0  0  0  0  0  0  0  0  0
    6.3282   50.7667  130.0343 C   0  0  0  0  0  0  0  0  0  0  0  0
    8.5204   47.1130  134.8889 C   0  0  0  0  0  0  0  0  0  0  0  0
    8.6807   46.7313  133.5414 O   0  0  0  0  0  0  0  0  0  0  0  0
   12.0485   43.6391  131.2008 N   0  0  0  0  0  0  0  0  0  0  0  0
   12.4688   42.6768  131.3698 H   0  0  0  0  0  0  0  0  0  0  0  0
   11.4798   43.9539  129.9573 C   0  0  0  0  0  0  0  0  0  0  0  0
   12.0322   44.7942  129.0170 C   0  0  0  0  0  0  0  0  0  0  0  0
   11.3874   45.1254  127.8125 C   0  0  0  0  0  0  0  0  0  0  0  0
   10.1452   44.5699  127.5877 C   0  0  0  0  0  0  0  0  0  0  0  0
    9.5721   43.7291  128.5083 C   0  0  0  0  0  0  0  0  0  0  0  0
   10.2101   43.4058  129.6901 C   0  0  0  0  0  0  0  0  0  0  0  0
    9.5077   42.3011  130.8350 S   0  0  0  0  0  0  0  0  0  0  0  0
    8.9148   41.0764  130.2017 O   0  0  0  0  0  0  0  0  0  0  0  0
   10.6959   41.7536  131.6511 O   0  0  0  0  0  0  0  0  0  0  0  0
    8.4631   43.0758  132.0121 C   0  0  0  0  0  0  0  0  0  0  0  0
    8.1834   44.5255  131.5901 C   0  0  0  0  0  0  0  0  0  0  0  0
    9.1559   43.2094  133.3734 C   0  0  0  0  0  0  0  0  0  0  0  0
 23 24  1  0  0  0
 24 10  1  0  0  0
 10 11  2  0  0  0
 11 12  1  0  0  0
 12 13  2  0  0  0
 13 14  1  0  0  0
 14 15  2  0  0  0
 15  8  1  0  0  0
  8  1  1  0  0  0
  1  2  2  0  0  0
  2  3  1  0  0  0
  3  4  2  0  0  0
  4  5  1  0  0  0
  4  6  1  0  0  0
  6 25  1  0  0  0
 25 27  1  0  0  0
 27 28  2  0  0  0
 28 29  1  0  0  0
 29 30  2  0  0  0
 30 31  1  0  0  0
 31 32  2  0  0  0
 32 33  1  0  0  0
 33 34  2  0  0  0
 33 35  2  0  0  0
 33 36  1  0  0  0
 36 37  1  0  0  0
 36 38  1  0  0  0
  6  7  2  0  0  0
 12 16  1  0  0  0
 16 17  1  0  0  0
 17 18  1  0  0  0
 18 19  1  0  0  0
 19 20  1  0  0  0
 19 21  1  0  0  0
 21 22  1  0  0  0
 15 10  1  0  0  0
  7  1  1  0  0  0
 22 16  1  0  0  0
 32 27  1  0  0  0
  8  9  1  0  0  0
 25 26  1  0  0  0
M  END
> <minimizedAffinity>
5.50021

> <CNNscore>
0.0745490044

> <CNNaffinity>
7.8259286880

> <CNN_VS>
0.5834152102

> <CNNaffinity_variance>
0.3900280595

$$$$
[H]c1nc2c([H])c([H])c([H])c([H])n2c1C(=O)N([H])c1c([H])c(N([H])C(=O)c2c([H])c([H])c(C([H])([H])N3C([H])([H])C([H])([H])N(C([H])([H])[H])C([H])([H])C3([H])[H])c(C(F)(F)F)c2[H])c([H])c([H])c1C([H])([H])[H]


 42 46  0  0  0  0  0  0  0  0999 V2000
    9.3548   48.9055  130.2996 C   0  0  0  0  0  0  0  0  0  0  0  0
   10.0126   49.8788  130.7120 O   0  0  0  0  0  0  0  0  0  0  0  0
    8.1382   49.0740  129.6291 N   0  0  0  0  0  0  0  0  0  0  0  0
    7.6675   48.1623  129.3183 H   0  0  0  0  0  0  0  0  0  0  0  0
    7.5176   50.3119  129.3528 C   0  0  0  0  0  0  0  0  0  0  0  0
    6.6654   50.9832  130.1747 C   0  0  0  0  0  0  0  0  0  0  0  0
    6.1447   52.2024  129.8062 C   0  0  0  0  0  0  0  0  0  0  0  0
    6.4677   52.7782  128.6002 C   0  0  0  0  0  0  0  0  0  0  0  0
    5.9063   54.0890  128.2058 C   0  0  0  0  0  0  0  0  0  0  0  0
    7.3354   52.1263  127.7281 C   0  0  0  0  0  0  0  0  0  0  0  0
    7.8425   50.9071  128.1218 C   0  0  0  0  0  0  0  0  0  0  0  0
    7.6378   52.7515  126.5199 N   0  0  0  0  0  0  0  0  0  0  0  0
    8.0280   54.0723  126.2569 C   0  0  0  0  0  0  0  0  0  0  0  0
    8.1600   54.9074  127.1676 O   0  0  0  0  0  0  0  0  0  0  0  0
    7.5678   52.1439  125.6311 H   0  0  0  0  0  0  0  0  0  0  0  0
    8.2979   54.5234  124.8739 C   0  0  0  0  0  0  0  0  0  0  0  0
    9.4701   55.1311  124.4755 C   0  0  0  0  0  0  0  0  0  0  0  0
    9.3651   55.3937  123.1701 N   0  0  0  0  0  0  0  0  0  0  0  0
    8.1695   54.9719  122.7392 C   0  0  0  0  0  0  0  0  0  0  0  0
    7.5803   55.0117  121.4776 C   0  0  0  0  0  0  0  0  0  0  0  0
    6.3175   54.5019  121.2927 C   0  0  0  0  0  0  0  0  0  0  0  0
    5.6796   53.9628  122.3923 C   0  0  0  0  0  0  0  0  0  0  0  0
    6.2798   53.9329  123.6326 C   0  0  0  0  0  0  0  0  0  0  0  0
    7.5129   54.4330  123.8033 N   0  0  0  0  0  0  0  0  0  0  0  0
   11.0863   45.0640  131.1658 C   0  0  0  0  0  0  0  0  0  0  0  0
   10.6448   45.3927  129.9006 C   0  0  0  0  0  0  0  0  0  0  0  0
   10.0742   46.6325  129.5848 C   0  0  0  0  0  0  0  0  0  0  0  0
    9.9377   47.5818  130.5623 C   0  0  0  0  0  0  0  0  0  0  0  0
   10.3707   47.2683  131.8137 C   0  0  0  0  0  0  0  0  0  0  0  0
   10.9437   46.0314  132.1461 C   0  0  0  0  0  0  0  0  0  0  0  0
   11.3753   45.7703  133.5183 C   0  0  0  0  0  0  0  0  0  0  0  0
   10.6091   44.8726  134.2216 F   0  0  0  0  0  0  0  0  0  0  0  0
   12.7282   45.4633  133.6053 F   0  0  0  0  0  0  0  0  0  0  0  0
   11.2568   46.9679  134.2442 F   0  0  0  0  0  0  0  0  0  0  0  0
   11.7239   43.7794  131.4697 C   0  0  0  0  0  0  0  0  0  0  0  0
    7.7914   42.3552  133.3158 C   0  0  0  0  0  0  0  0  0  0  0  0
    9.0100   42.8975  132.8237 N   0  0  0  0  0  0  0  0  0  0  0  0
   10.1960   42.1717  133.1280 C   0  0  0  0  0  0  0  0  0  0  0  0
   10.9287   41.6086  131.9809 C   0  0  0  0  0  0  0  0  0  0  0  0
   11.1053   42.6164  130.9156 N   0  0  0  0  0  0  0  0  0  0  0  0
    9.7246   42.8262  130.4697 C   0  0  0  0  0  0  0  0  0  0  0  0
    8.9776   43.5177  131.5484 C   0  0  0  0  0  0  0  0  0  0  0  0
 36 37  1  0  0  0
 37 38  1  0  0  0
 38 39  1  0  0  0
 39 40  1  0  0  0
 40 35  1  0  0  0
 35 25  1  0  0  0
 25 26  2  0  0  0
 26 27  1  0  0  0
 27 28  2  0  0  0
 28 29  1  0  0  0
 29 30  2  0  0  0
 30 31  1  0  0  0
 31 32  1  0  0  0
 31 33  1  0  0  0
 31 34  1  0  0  0
 28  1  1  0  0  0
  1  2  2  0  0  0
  1  3  1  0  0  0
  3  5  1  0  0  0
  5  6  2  0  0  0
  6  7  1  0  0  0
  7  8  2  0  0  0
  8  9  1  0  0  0
  8 10  1  0  0  0
 10 12  1  0  0  0
 12 13  1  0  0  0
 13 14  2  0  0  0
 13 16  1  0  0  0
 16 17  2  0  0  0
 17 18  1  0  0  0
 18 19  2  0  0  0
 19 20  1  0  0  0
 20 21  2  0  0  0
 21 22  1  0  0  0
 22 23  2  0  0  0
 23 24  1  0  0  0
 10 11  2  0  0  0
 40 41  1  0  0  0
 41 42  1  0  0  0
 42 37  1  0  0  0
 30 25  1  0  0  0
 11  5  1  0  0  0
 24 16  1  0  0  0
 24 19  1  0  0  0
  3  4  1  0  0  0
 12 15  1  0  0  0
M  END
> <minimizedAffinity>
6.81106

> <CNNscore>
0.3442212641

> <CNNaffinity>
7.0965218544

> <CNN_VS>
2.4427738190

> <CNNaffinity_variance>
0.1163247079

$$$$
[H]c1nc2c([H])c([H])c([H])c([H])n2c1C(=O)N([H])c1c([H])c(N([H])C(=O)c2c([H])c([H])c(C([H])([H])N3C([H])([H])C([H])([H])N(C([H])([H])[H])C([H])([H])C3([H])[H])c(C(F)(F)F)c2[H])c([H])c([H])c1C([H])([H])[H]


 42 46  0  0  0  0  0  0  0  0999 V2000
    7.8390   48.6792  130.6034 C   0  0  0  0  0  0  0  0  0  0  0  0
    7.7644   49.3345  131.6594 O   0  0  0  0  0  0  0  0  0  0  0  0
    7.7037   49.2887  129.3511 N   0  0  0  0  0  0  0  0  0  0  0  0
    7.7917   48.6221  128.5161 H   0  0  0  0  0  0  0  0  0  0  0  0
    7.4651   50.6625  129.1282 C   0  0  0  0  0  0  0  0  0  0  0  0
    7.3782   51.6271  130.0844 C   0  0  0  0  0  0  0  0  0  0  0  0
    7.1711   52.9434  129.7410 C   0  0  0  0  0  0  0  0  0  0  0  0
    7.0456   53.3236  128.4257 C   0  0  0  0  0  0  0  0  0  0  0  0
    6.8225   54.7395  128.0588 C   0  0  0  0  0  0  0  0  0  0  0  0
    7.1275   52.3698  127.4148 C   0  0  0  0  0  0  0  0  0  0  0  0
    7.3355   51.0594  127.7862 C   0  0  0  0  0  0  0  0  0  0  0  0
    7.0001   52.8036  126.0966 N   0  0  0  0  0  0  0  0  0  0  0  0
    7.7837   53.7029  125.3597 C   0  0  0  0  0  0  0  0  0  0  0  0
    8.7762   54.2622  125.8562 O   0  0  0  0  0  0  0  0  0  0  0  0
    6.1750   52.3976  125.5324 H   0  0  0  0  0  0  0  0  0  0  0  0
    7.4541   54.0217  123.9531 C   0  0  0  0  0  0  0  0  0  0  0  0
    8.3917   54.3476  122.9957 C   0  0  0  0  0  0  0  0  0  0  0  0
    7.7400   54.5657  121.8503 N   0  0  0  0  0  0  0  0  0  0  0  0
    6.4293   54.3878  122.0583 C   0  0  0  0  0  0  0  0  0  0  0  0
    5.3390   54.4931  121.1976 C   0  0  0  0  0  0  0  0  0  0  0  0
    4.0690   54.2550  121.6654 C   0  0  0  0  0  0  0  0  0  0  0  0
    3.9323   53.9152  122.9967 C   0  0  0  0  0  0  0  0  0  0  0  0
    5.0240   53.8162  123.8323 C   0  0  0  0  0  0  0  0  0  0  0  0
    6.2600   54.0505  123.3665 N   0  0  0  0  0  0  0  0  0  0  0  0
    8.5447   44.4733  131.1682 C   0  0  0  0  0  0  0  0  0  0  0  0
    8.4564   45.0321  129.9097 C   0  0  0  0  0  0  0  0  0  0  0  0
    8.2250   46.3961  129.6901 C   0  0  0  0  0  0  0  0  0  0  0  0
    8.0765   47.2370  130.7608 C   0  0  0  0  0  0  0  0  0  0  0  0
    8.1627   46.6964  132.0065 C   0  0  0  0  0  0  0  0  0  0  0  0
    8.3935   45.3327  132.2433 C   0  0  0  0  0  0  0  0  0  0  0  0
    8.4631   44.8297  133.6142 C   0  0  0  0  0  0  0  0  0  0  0  0
    8.0695   43.5251  133.7892 F   0  0  0  0  0  0  0  0  0  0  0  0
    9.6931   45.0754  134.2132 F   0  0  0  0  0  0  0  0  0  0  0  0
    7.5578   45.5706  134.3931 F   0  0  0  0  0  0  0  0  0  0  0  0
    8.8337   43.0521  131.3815 C   0  0  0  0  0  0  0  0  0  0  0  0
   12.8934   43.6096  133.4087 C   0  0  0  0  0  0  0  0  0  0  0  0
   11.5782   43.4921  132.8818 N   0  0  0  0  0  0  0  0  0  0  0  0
   11.2644   44.3214  131.7683 C   0  0  0  0  0  0  0  0  0  0  0  0
   10.9563   43.6289  130.5053 C   0  0  0  0  0  0  0  0  0  0  0  0
    9.9899   42.5330  130.7213 N   0  0  0  0  0  0  0  0  0  0  0  0
   10.7744   41.5972  131.5326 C   0  0  0  0  0  0  0  0  0  0  0  0
   10.9955   42.1990  132.8701 C   0  0  0  0  0  0  0  0  0  0  0  0
 36 37  1  0  0  0
 37 38  1  0  0  0
 38 39  1  0  0  0
 39 40  1  0  0  0
 40 35  1  0  0  0
 35 25  1  0  0  0
 25 26  2  0  0  0
 26 27  1  0  0  0
 27 28  2  0  0  0
 28 29  1  0  0  0
 29 30  2  0  0  0
 30 31  1  0  0  0
 31 32  1  0  0  0
 31 33  1  0  0  0
 31 34  1  0  0  0
 28  1  1  0  0  0
  1  2  2  0  0  0
  1  3  1  0  0  0
  3  5  1  0  0  0
  5  6  2  0  0  0
  6  7  1  0  0  0
  7  8  2  0  0  0
  8  9  1  0  0  0
  8 10  1  0  0  0
 10 12  1  0  0  0
 12 13  1  0  0  0
 13 14  2  0  0  0
 13 16  1  0  0  0
 16 17  2  0  0  0
 17 18  1  0  0  0
 18 19  2  0  0  0
 19 20  1  0  0  0
 20 21  2  0  0  0
 21 22  1  0  0  0
 22 23  2  0  0  0
 23 24  1  0  0  0
 10 11  2  0  0  0
 40 41  1  0  0  0
 41 42  1  0  0  0
 42 37  1  0  0  0
 30 25  1  0  0  0
 11  5  1  0  0  0
 24 16  1  0  0  0
 24 19  1  0  0  0
  3  4  1  0  0  0
 12 15  1  0  0  0
M  END
> <minimizedAffinity>
8.54265

> <CNNscore>
0.3321318924

> <CNNaffinity>
7.0172681808

> <CNN_VS>
2.3306586742

> <CNNaffinity_variance>
0.6333701015

$$$$
[H]c1nc2c([H])c([H])c([H])c([H])n2c1C(=O)N([H])c1c([H])c(N([H])C(=O)c2c([H])c([H])c(C([H])([H])N3C([H])([H])C([H])([H])N(C([H])([H])[H])C([H])([H])C3([H])[H])c(C(F)(F)F)c2[H])c([H])c([H])c1C([H])([H])[H]


 42 46  0  0  0  0  0  0  0  0999 V2000
    9.3640   48.9416  130.6724 C   0  0  0  0  0  0  0  0  0  0  0  0
    9.7818   49.9292  131.3050 O   0  0  0  0  0  0  0  0  0  0  0  0
    8.3109   49.0492  129.7571 N   0  0  0  0  0  0  0  0  0  0  0  0
    8.0438   48.1317  129.2711 H   0  0  0  0  0  0  0  0  0  0  0  0
    7.6073   50.2345  129.4508 C   0  0  0  0  0  0  0  0  0  0  0  0
    6.6725   50.8378  130.2348 C   0  0  0  0  0  0  0  0  0  0  0  0
    6.0736   52.0122  129.8404 C   0  0  0  0  0  0  0  0  0  0  0  0
    6.3994   52.6103  128.6461 C   0  0  0  0  0  0  0  0  0  0  0  0
    5.7537   53.8728  128.2239 C   0  0  0  0  0  0  0  0  0  0  0  0
    7.3500   52.0274  127.8126 C   0  0  0  0  0  0  0  0  0  0  0  0
    7.9344   50.8521  128.2315 C   0  0  0  0  0  0  0  0  0  0  0  0
    7.6515   52.6732  126.6150 N   0  0  0  0  0  0  0  0  0  0  0  0
    7.9923   54.0107  126.3685 C   0  0  0  0  0  0  0  0  0  0  0  0
    8.0709   54.8440  127.2871 O   0  0  0  0  0  0  0  0  0  0  0  0
    7.6250   52.0696  125.7211 H   0  0  0  0  0  0  0  0  0  0  0  0
    8.2722   54.4824  124.9944 C   0  0  0  0  0  0  0  0  0  0  0  0
    9.4420   55.1074  124.6165 C   0  0  0  0  0  0  0  0  0  0  0  0
    9.3481   55.3857  123.3135 N   0  0  0  0  0  0  0  0  0  0  0  0
    8.1617   54.9571  122.8644 C   0  0  0  0  0  0  0  0  0  0  0  0
    7.5856   55.0070  121.5971 C   0  0  0  0  0  0  0  0  0  0  0  0
    6.3303   54.4864  121.3922 C   0  0  0  0  0  0  0  0  0  0  0  0
    5.6865   53.9265  122.4778 C   0  0  0  0  0  0  0  0  0  0  0  0
    6.2738   53.8869  123.7240 C   0  0  0  0  0  0  0  0  0  0  0  0
    7.4996   54.3976  123.9143 N   0  0  0  0  0  0  0  0  0  0  0  0
   11.3465   45.1904  131.3824 C   0  0  0  0  0  0  0  0  0  0  0  0
   11.0193   46.0454  132.4147 C   0  0  0  0  0  0  0  0  0  0  0  0
   10.3765   47.2746  132.2187 C   0  0  0  0  0  0  0  0  0  0  0  0
   10.0454   47.6690  130.9497 C   0  0  0  0  0  0  0  0  0  0  0  0
   10.3628   46.8327  129.9243 C   0  0  0  0  0  0  0  0  0  0  0  0
   11.0067   45.5990  130.1037 C   0  0  0  0  0  0  0  0  0  0  0  0
   11.3211   44.7627  128.9466 C   0  0  0  0  0  0  0  0  0  0  0  0
   12.6485   44.4480  128.7838 F   0  0  0  0  0  0  0  0  0  0  0  0
   10.5163   43.6321  128.8681 F   0  0  0  0  0  0  0  0  0  0  0  0
   10.9938   45.4873  127.7877 F   0  0  0  0  0  0  0  0  0  0  0  0
   11.9771   43.8865  131.6082 C   0  0  0  0  0  0  0  0  0  0  0  0
    7.8500   42.0160  131.0002 C   0  0  0  0  0  0  0  0  0  0  0  0
    9.1244   42.6424  131.0686 N   0  0  0  0  0  0  0  0  0  0  0  0
    9.2271   43.7810  131.9166 C   0  0  0  0  0  0  0  0  0  0  0  0
   10.1312   43.6542  133.0726 C   0  0  0  0  0  0  0  0  0  0  0  0
   11.4369   43.0947  132.6681 N   0  0  0  0  0  0  0  0  0  0  0  0
   11.0691   41.7321  132.2715 C   0  0  0  0  0  0  0  0  0  0  0  0
   10.2656   41.8009  131.0267 C   0  0  0  0  0  0  0  0  0  0  0  0
 36 37  1  0  0  0
 37 38  1  0  0  0
 38 39  1  0  0  0
 39 40  1  0  0  0
 40 35  1  0  0  0
 35 25  1  0  0  0
 25 26  2  0  0  0
 26 27  1  0  0  0
 27 28  2  0  0  0
 28 29  1  0  0  0
 29 30  2  0  0  0
 30 31  1  0  0  0
 31 32  1  0  0  0
 31 33  1  0  0  0
 31 34  1  0  0  0
 28  1  1  0  0  0
  1  2  2  0  0  0
  1  3  1  0  0  0
  3  5  1  0  0  0
  5  6  2  0  0  0
  6  7  1  0  0  0
  7  8  2  0  0  0
  8  9  1  0  0  0
  8 10  1  0  0  0
 10 12  1  0  0  0
 12 13  1  0  0  0
 13 14  2  0  0  0
 13 16  1  0  0  0
 16 17  2  0  0  0
 17 18  1  0  0  0
 18 19  2  0  0  0
 19 20  1  0  0  0
 20 21  2  0  0  0
 21 22  1  0  0  0
 22 23  2  0  0  0
 23 24  1  0  0  0
 10 11  2  0  0  0
 40 41  1  0  0  0
 41 42  1  0  0  0
 42 37  1  0  0  0
 30 25  1  0  0  0
 11  5  1  0  0  0
 24 16  1  0  0  0
 24 19  1  0  0  0
  3  4  1  0  0  0
 12 15  1  0  0  0
M  END
> <minimizedAffinity>
7.02233

> <CNNscore>
0.2792518437

> <CNNaffinity>
7.1655859947

> <CNN_VS>
2.0010030270

> <CNNaffinity_variance>
0.1086636186

$$$$
[H]c1nc2c([H])c([H])c([H])c([H])n2c1C(=O)N([H])c1c([H])c(N([H])C(=O)c2c([H])c([H])c(C([H])([H])N3C([H])([H])C([H])([H])N(C([H])([H])[H])C([H])([H])C3([H])[H])c(C(F)(F)F)c2[H])c([H])c([H])c1C([H])([H])[H]


 42 46  0  0  0  0  0  0  0  0999 V2000
    9.1701   49.0694  131.1376 C   0  0  0  0  0  0  0  0  0  0  0  0
    9.3790   50.0365  131.8933 O   0  0  0  0  0  0  0  0  0  0  0  0
    8.3157   49.1724  130.0341 N   0  0  0  0  0  0  0  0  0  0  0  0
    8.2197   48.2746  129.4561 H   0  0  0  0  0  0  0  0  0  0  0  0
    7.6014   50.3296  129.6541 C   0  0  0  0  0  0  0  0  0  0  0  0
    6.6505   50.9641  130.3927 C   0  0  0  0  0  0  0  0  0  0  0  0
    6.0420   52.1068  129.9266 C   0  0  0  0  0  0  0  0  0  0  0  0
    6.3743   52.6411  128.7041 C   0  0  0  0  0  0  0  0  0  0  0  0
    5.7185   53.8697  128.2047 C   0  0  0  0  0  0  0  0  0  0  0  0
    7.3415   52.0245  127.9150 C   0  0  0  0  0  0  0  0  0  0  0  0
    7.9351   50.8820  128.4056 C   0  0  0  0  0  0  0  0  0  0  0  0
    7.6490   52.6059  126.6864 N   0  0  0  0  0  0  0  0  0  0  0  0
    7.9572   53.9356  126.3659 C   0  0  0  0  0  0  0  0  0  0  0  0
    7.9940   54.8243  127.2337 O   0  0  0  0  0  0  0  0  0  0  0  0
    7.6574   51.9494  125.8302 H   0  0  0  0  0  0  0  0  0  0  0  0
    8.2515   54.3321  124.9712 C   0  0  0  0  0  0  0  0  0  0  0  0
    9.4719   54.8148  124.5474 C   0  0  0  0  0  0  0  0  0  0  0  0
    9.3757   55.0619  123.2383 N   0  0  0  0  0  0  0  0  0  0  0  0
    8.1391   54.7509  122.8296 C   0  0  0  0  0  0  0  0  0  0  0  0
    7.5399   54.8243  121.5742 C   0  0  0  0  0  0  0  0  0  0  0  0
    6.2311   54.4368  121.4139 C   0  0  0  0  0  0  0  0  0  0  0  0
    5.5583   53.9833  122.5311 C   0  0  0  0  0  0  0  0  0  0  0  0
    6.1692   53.9183  123.7649 C   0  0  0  0  0  0  0  0  0  0  0  0
    7.4473   54.2987  123.9116 N   0  0  0  0  0  0  0  0  0  0  0  0
   11.1908   45.4343  132.2369 C   0  0  0  0  0  0  0  0  0  0  0  0
   11.4338   46.0646  131.0338 C   0  0  0  0  0  0  0  0  0  0  0  0
   10.7920   47.2471  130.6436 C   0  0  0  0  0  0  0  0  0  0  0  0
    9.8749   47.8257  131.4801 C   0  0  0  0  0  0  0  0  0  0  0  0
    9.6284   47.2126  132.6696 C   0  0  0  0  0  0  0  0  0  0  0  0
   10.2622   46.0282  133.0749 C   0  0  0  0  0  0  0  0  0  0  0  0
    9.9336   45.4276  134.3667 C   0  0  0  0  0  0  0  0  0  0  0  0
   10.8307   44.4987  134.8356 F   0  0  0  0  0  0  0  0  0  0  0  0
    9.6285   46.3757  135.3362 F   0  0  0  0  0  0  0  0  0  0  0  0
    8.7369   44.7061  134.2162 F   0  0  0  0  0  0  0  0  0  0  0  0
   11.9050   44.2228  132.6508 C   0  0  0  0  0  0  0  0  0  0  0  0
    8.1014   42.2625  131.0410 C   0  0  0  0  0  0  0  0  0  0  0  0
    9.2079   42.9494  131.6111 N   0  0  0  0  0  0  0  0  0  0  0  0
    9.9986   42.2172  132.5410 C   0  0  0  0  0  0  0  0  0  0  0  0
   11.3967   41.9647  132.1522 C   0  0  0  0  0  0  0  0  0  0  0  0
   12.0443   43.1990  131.6636 N   0  0  0  0  0  0  0  0  0  0  0  0
   11.3039   43.4557  130.4246 C   0  0  0  0  0  0  0  0  0  0  0  0
    9.9168   43.8483  130.7736 C   0  0  0  0  0  0  0  0  0  0  0  0
 36 37  1  0  0  0
 37 38  1  0  0  0
 38 39  1  0  0  0
 39 40  1  0  0  0
 40 35  1  0  0  0
 35 25  1  0  0  0
 25 26  2  0  0  0
 26 27  1  0  0  0
 27 28  2  0  0  0
 28 29  1  0  0  0
 29 30  2  0  0  0
 30 31  1  0  0  0
 31 32  1  0  0  0
 31 33  1  0  0  0
 31 34  1  0  0  0
 28  1  1  0  0  0
  1  2  2  0  0  0
  1  3  1  0  0  0
  3  5  1  0  0  0
  5  6  2  0  0  0
  6  7  1  0  0  0
  7  8  2  0  0  0
  8  9  1  0  0  0
  8 10  1  0  0  0
 10 12  1  0  0  0
 12 13  1  0  0  0
 13 14  2  0  0  0
 13 16  1  0  0  0
 16 17  2  0  0  0
 17 18  1  0  0  0
 18 19  2  0  0  0
 19 20  1  0  0  0
 20 21  2  0  0  0
 21 22  1  0  0  0
 22 23  2  0  0  0
 23 24  1  0  0  0
 10 11  2  0  0  0
 40 41  1  0  0  0
 41 42  1  0  0  0
 42 37  1  0  0  0
 30 25  1  0  0  0
 11  5  1  0  0  0
 24 16  1  0  0  0
 24 19  1  0  0  0
  3  4  1  0  0  0
 12 15  1  0  0  0
M  END
> <minimizedAffinity>
7.53439

> <CNNscore>
0.2735956907

> <CNNaffinity>
7.1009049416

> <CNN_VS>
1.9427770376

> <CNNaffinity_variance>
0.0983559117

$$$$
[H]c1nc2c([H])c([H])c([H])c([H])n2c1C(=O)N([H])c1c([H])c(N([H])C(=O)c2c([H])c([H])c(C([H])([H])N3C([H])([H])C([H])([H])N(C([H])([H])[H])C([H])([H])C3([H])[H])c(C(F)(F)F)c2[H])c([H])c([H])c1C([H])([H])[H]


 42 46  0  0  0  0  0  0  0  0999 V2000
    8.1619   48.9640  130.2883 C   0  0  0  0  0  0  0  0  0  0  0  0
    8.5472   49.6733  131.2362 O   0  0  0  0  0  0  0  0  0  0  0  0
    7.5609   49.5201  129.1535 N   0  0  0  0  0  0  0  0  0  0  0  0
    7.2763   48.8093  128.4031 H   0  0  0  0  0  0  0  0  0  0  0  0
    7.3129   50.8946  128.9460 C   0  0  0  0  0  0  0  0  0  0  0  0
    7.0436   51.8158  129.9110 C   0  0  0  0  0  0  0  0  0  0  0  0
    6.8476   53.1388  129.5875 C   0  0  0  0  0  0  0  0  0  0  0  0
    6.9171   53.5696  128.2837 C   0  0  0  0  0  0  0  0  0  0  0  0
    6.7056   54.9926  127.9381 C   0  0  0  0  0  0  0  0  0  0  0  0
    7.1896   52.6613  127.2643 C   0  0  0  0  0  0  0  0  0  0  0  0
    7.3819   51.3431  127.6158 C   0  0  0  0  0  0  0  0  0  0  0  0
    7.2559   53.1457  125.9593 N   0  0  0  0  0  0  0  0  0  0  0  0
    6.3552   53.9482  125.2447 C   0  0  0  0  0  0  0  0  0  0  0  0
    5.2968   54.3540  125.7541 O   0  0  0  0  0  0  0  0  0  0  0  0
    8.1291   52.8737  125.3871 H   0  0  0  0  0  0  0  0  0  0  0  0
    6.6343   54.3434  123.8465 C   0  0  0  0  0  0  0  0  0  0  0  0
    5.7036   54.2927  122.8300 C   0  0  0  0  0  0  0  0  0  0  0  0
    6.2994   54.7249  121.7154 N   0  0  0  0  0  0  0  0  0  0  0  0
    7.5686   55.0434  121.9995 C   0  0  0  0  0  0  0  0  0  0  0  0
    8.5951   55.5353  121.1965 C   0  0  0  0  0  0  0  0  0  0  0  0
    9.8323   55.7859  121.7397 C   0  0  0  0  0  0  0  0  0  0  0  0
   10.0015   55.5318  123.0863 C   0  0  0  0  0  0  0  0  0  0  0  0
    8.9730   55.0449  123.8640 C   0  0  0  0  0  0  0  0  0  0  0  0
    7.7686   54.8034  123.3247 N   0  0  0  0  0  0  0  0  0  0  0  0
    8.8627   44.7352  130.6515 C   0  0  0  0  0  0  0  0  0  0  0  0
    7.9308   45.3864  131.4332 C   0  0  0  0  0  0  0  0  0  0  0  0
    7.6794   46.7616  131.3427 C   0  0  0  0  0  0  0  0  0  0  0  0
    8.3796   47.5183  130.4412 C   0  0  0  0  0  0  0  0  0  0  0  0
    9.3007   46.8858  129.6646 C   0  0  0  0  0  0  0  0  0  0  0  0
    9.5644   45.5099  129.7433 C   0  0  0  0  0  0  0  0  0  0  0  0
   10.5781   44.9086  128.8783 C   0  0  0  0  0  0  0  0  0  0  0  0
   11.7287   44.4987  129.5073 F   0  0  0  0  0  0  0  0  0  0  0  0
   10.0612   43.9103  128.0609 F   0  0  0  0  0  0  0  0  0  0  0  0
   11.0117   45.8916  127.9723 F   0  0  0  0  0  0  0  0  0  0  0  0
    9.0809   43.2875  130.7256 C   0  0  0  0  0  0  0  0  0  0  0  0
   12.6164   43.8483  133.5694 C   0  0  0  0  0  0  0  0  0  0  0  0
   11.5800   43.7488  132.6013 N   0  0  0  0  0  0  0  0  0  0  0  0
   11.4194   42.4825  131.9716 C   0  0  0  0  0  0  0  0  0  0  0  0
   10.1439   41.7882  132.2183 C   0  0  0  0  0  0  0  0  0  0  0  0
    8.9966   42.6981  132.0248 N   0  0  0  0  0  0  0  0  0  0  0  0
    9.1779   43.6475  133.1270 C   0  0  0  0  0  0  0  0  0  0  0  0
   10.3833   44.4673  132.8537 C   0  0  0  0  0  0  0  0  0  0  0  0
 36 37  1  0  0  0
 37 38  1  0  0  0
 38 39  1  0  0  0
 39 40  1  0  0  0
 40 35  1  0  0  0
 35 25  1  0  0  0
 25 26  2  0  0  0
 26 27  1  0  0  0
 27 28  2  0  0  0
 28 29  1  0  0  0
 29 30  2  0  0  0
 30 31  1  0  0  0
 31 32  1  0  0  0
 31 33  1  0  0  0
 31 34  1  0  0  0
 28  1  1  0  0  0
  1  2  2  0  0  0
  1  3  1  0  0  0
  3  5  1  0  0  0
  5  6  2  0  0  0
  6  7  1  0  0  0
  7  8  2  0  0  0
  8  9  1  0  0  0
  8 10  1  0  0  0
 10 12  1  0  0  0
 12 13  1  0  0  0
 13 14  2  0  0  0
 13 16  1  0  0  0
 16 17  2  0  0  0
 17 18  1  0  0  0
 18 19  2  0  0  0
 19 20  1  0  0  0
 20 21  2  0  0  0
 21 22  1  0  0  0
 22 23  2  0  0  0
 23 24  1  0  0  0
 10 11  2  0  0  0
 40 41  1  0  0  0
 41 42  1  0  0  0
 42 37  1  0  0  0
 30 25  1  0  0  0
 11  5  1  0  0  0
 24 16  1  0  0  0
 24 19  1  0  0  0
  3  4  1  0  0  0
 12 15  1  0  0  0
M  END
> <minimizedAffinity>
7.70579

> <CNNscore>
0.2496992946

> <CNNaffinity>
7.1843352318

> <CNN_VS>
1.7939234972

> <CNNaffinity_variance>
0.3496188819

$$$$
[H]c1nc2c([H])c([H])c([H])c([H])n2c1C(=O)N([H])c1c([H])c(N([H])C(=O)c2c([H])c([H])c(C([H])([H])N3C([H])([H])C([H])([H])N(C([H])([H])[H])C([H])([H])C3([H])[H])c(C(F)(F)F)c2[H])c([H])c([H])c1C([H])([H])[H]


 42 46  0  0  0  0  0  0  0  0999 V2000
    7.3661   48.0164  129.3020 C   0  0  0  0  0  0  0  0  0  0  0  0
    6.2445   47.9657  128.7639 O   0  0  0  0  0  0  0  0  0  0  0  0
    7.9861   49.2371  129.5912 N   0  0  0  0  0  0  0  0  0  0  0  0
    8.9472   49.1521  130.0586 H   0  0  0  0  0  0  0  0  0  0  0  0
    7.4524   50.5148  129.3147 C   0  0  0  0  0  0  0  0  0  0  0  0
    6.7168   51.2786  130.1677 C   0  0  0  0  0  0  0  0  0  0  0  0
    6.2745   52.5267  129.7933 C   0  0  0  0  0  0  0  0  0  0  0  0
    6.5607   53.0389  128.5499 C   0  0  0  0  0  0  0  0  0  0  0  0
    6.0837   54.3809  128.1493 C   0  0  0  0  0  0  0  0  0  0  0  0
    7.3098   52.2915  127.6451 C   0  0  0  0  0  0  0  0  0  0  0  0
    7.7403   51.0454  128.0455 C   0  0  0  0  0  0  0  0  0  0  0  0
    7.5793   52.8546  126.3992 N   0  0  0  0  0  0  0  0  0  0  0  0
    8.0924   54.1167  126.0680 C   0  0  0  0  0  0  0  0  0  0  0  0
    8.3928   54.9487  126.9410 O   0  0  0  0  0  0  0  0  0  0  0  0
    7.3678   52.2421  125.5366 H   0  0  0  0  0  0  0  0  0  0  0  0
    8.2957   54.5072  124.6555 C   0  0  0  0  0  0  0  0  0  0  0  0
    9.4616   55.0593  124.1677 C   0  0  0  0  0  0  0  0  0  0  0  0
    9.2893   55.2773  122.8613 N   0  0  0  0  0  0  0  0  0  0  0  0
    8.0577   54.8812  122.5159 C   0  0  0  0  0  0  0  0  0  0  0  0
    7.3975   54.8948  121.2893 C   0  0  0  0  0  0  0  0  0  0  0  0
    6.1104   54.4222  121.1966 C   0  0  0  0  0  0  0  0  0  0  0  0
    5.5206   53.9460  122.3507 C   0  0  0  0  0  0  0  0  0  0  0  0
    6.1908   53.9411  123.5550 C   0  0  0  0  0  0  0  0  0  0  0  0
    7.4472   54.4046  123.6357 N   0  0  0  0  0  0  0  0  0  0  0  0
    9.2600   44.2440  130.1316 C   0  0  0  0  0  0  0  0  0  0  0  0
    8.0301   44.5715  130.6642 C   0  0  0  0  0  0  0  0  0  0  0  0
    7.3867   45.7911  130.4169 C   0  0  0  0  0  0  0  0  0  0  0  0
    7.9873   46.7200  129.6095 C   0  0  0  0  0  0  0  0  0  0  0  0
    9.2003   46.4068  129.0782 C   0  0  0  0  0  0  0  0  0  0  0  0
    9.8578   45.1903  129.3165 C   0  0  0  0  0  0  0  0  0  0  0  0
   11.1652   44.9352  128.7141 C   0  0  0  0  0  0  0  0  0  0  0  0
   12.1681   44.5991  129.5910 F   0  0  0  0  0  0  0  0  0  0  0  0
   11.0999   44.0443  127.6493 F   0  0  0  0  0  0  0  0  0  0  0  0
   11.6098   46.1304  128.1234 F   0  0  0  0  0  0  0  0  0  0  0  0
    9.8987   42.9448  130.3623 C   0  0  0  0  0  0  0  0  0  0  0  0
   12.5138   44.3061  133.8565 C   0  0  0  0  0  0  0  0  0  0  0  0
   11.7612   43.9709  132.6978 N   0  0  0  0  0  0  0  0  0  0  0  0
   12.0361   42.7056  132.1068 C   0  0  0  0  0  0  0  0  0  0  0  0
   10.9328   41.7297  132.1115 C   0  0  0  0  0  0  0  0  0  0  0  0
    9.6756   42.3454  131.6402 N   0  0  0  0  0  0  0  0  0  0  0  0
    9.3919   43.3049  132.7115 C   0  0  0  0  0  0  0  0  0  0  0  0
   10.4055   44.3865  132.6604 C   0  0  0  0  0  0  0  0  0  0  0  0
 36 37  1  0  0  0
 37 38  1  0  0  0
 38 39  1  0  0  0
 39 40  1  0  0  0
 40 35  1  0  0  0
 35 25  1  0  0  0
 25 26  2  0  0  0
 26 27  1  0  0  0
 27 28  2  0  0  0
 28 29  1  0  0  0
 29 30  2  0  0  0
 30 31  1  0  0  0
 31 32  1  0  0  0
 31 33  1  0  0  0
 31 34  1  0  0  0
 28  1  1  0  0  0
  1  2  2  0  0  0
  1  3  1  0  0  0
  3  5  1  0  0  0
  5  6  2  0  0  0
  6  7  1  0  0  0
  7  8  2  0  0  0
  8  9  1  0  0  0
  8 10  1  0  0  0
 10 12  1  0  0  0
 12 13  1  0  0  0
 13 14  2  0  0  0
 13 16  1  0  0  0
 16 17  2  0  0  0
 17 18  1  0  0  0
 18 19  2  0  0  0
 19 20  1  0  0  0
 20 21  2  0  0  0
 21 22  1  0  0  0
 22 23  2  0  0  0
 23 24  1  0  0  0
 10 11  2  0  0  0
 40 41  1  0  0  0
 41 42  1  0  0  0
 42 37  1  0  0  0
 30 25  1  0  0  0
 11  5  1  0  0  0
 24 16  1  0  0  0
 24 19  1  0  0  0
  3  4  1  0  0  0
 12 15  1  0  0  0
M  END
> <minimizedAffinity>
5.78140

> <CNNscore>
0.1844451278

> <CNNaffinity>
7.1532287598

> <CNN_VS>
1.3193781376

> <CNNaffinity_variance>
0.2290896624

$$$$
[H]c1nc2c([H])c([H])c([H])c([H])n2c1C(=O)N([H])c1c([H])c(N([H])C(=O)c2c([H])c([H])c(C([H])([H])N3C([H])([H])C([H])([H])N(C([H])([H])[H])C([H])([H])C3([H])[H])c(C(F)(F)F)c2[H])c([H])c([H])c1C([H])([H])[H]


 42 46  0  0  0  0  0  0  0  0999 V2000
    7.2859   47.8001  129.7691 C   0  0  0  0  0  0  0  0  0  0  0  0
    6.1159   47.7284  129.3494 O   0  0  0  0  0  0  0  0  0  0  0  0
    7.9432   49.0283  129.9021 N   0  0  0  0  0  0  0  0  0  0  0  0
    8.9451   48.9623  130.2778 H   0  0  0  0  0  0  0  0  0  0  0  0
    7.3968   50.2906  129.5828 C   0  0  0  0  0  0  0  0  0  0  0  0
    6.6203   51.0575  130.3960 C   0  0  0  0  0  0  0  0  0  0  0  0
    6.1690   52.2899  129.9824 C   0  0  0  0  0  0  0  0  0  0  0  0
    6.4872   52.7830  128.7391 C   0  0  0  0  0  0  0  0  0  0  0  0
    6.0005   54.1082  128.2964 C   0  0  0  0  0  0  0  0  0  0  0  0
    7.2787   52.0318  127.8744 C   0  0  0  0  0  0  0  0  0  0  0  0
    7.7173   50.8017  128.3134 C   0  0  0  0  0  0  0  0  0  0  0  0
    7.5796   52.5755  126.6270 N   0  0  0  0  0  0  0  0  0  0  0  0
    7.9448   53.8821  126.2731 C   0  0  0  0  0  0  0  0  0  0  0  0
    8.0511   54.7828  127.1227 O   0  0  0  0  0  0  0  0  0  0  0  0
    7.5304   51.9046  125.7834 H   0  0  0  0  0  0  0  0  0  0  0  0
    8.2184   54.2389  124.8635 C   0  0  0  0  0  0  0  0  0  0  0  0
    9.4547   54.6278  124.3921 C   0  0  0  0  0  0  0  0  0  0  0  0
    9.3314   54.8645  123.0833 N   0  0  0  0  0  0  0  0  0  0  0  0
    8.0625   54.6375  122.7208 C   0  0  0  0  0  0  0  0  0  0  0  0
    7.4273   54.7377  121.4851 C   0  0  0  0  0  0  0  0  0  0  0  0
    6.0896   54.4428  121.3745 C   0  0  0  0  0  0  0  0  0  0  0  0
    5.4251   54.0527  122.5202 C   0  0  0  0  0  0  0  0  0  0  0  0
    6.0718   53.9598  123.7338 C   0  0  0  0  0  0  0  0  0  0  0  0
    7.3779   54.2497  123.8320 N   0  0  0  0  0  0  0  0  0  0  0  0
    9.1269   44.0725  130.8744 C   0  0  0  0  0  0  0  0  0  0  0  0
    9.1841   44.5557  129.5833 C   0  0  0  0  0  0  0  0  0  0  0  0
    8.5940   45.7635  129.1890 C   0  0  0  0  0  0  0  0  0  0  0  0
    7.9222   46.5201  130.1120 C   0  0  0  0  0  0  0  0  0  0  0  0
    7.8605   46.0530  131.3886 C   0  0  0  0  0  0  0  0  0  0  0  0
    8.4457   44.8457  131.7993 C   0  0  0  0  0  0  0  0  0  0  0  0
    8.3255   44.4101  133.1896 C   0  0  0  0  0  0  0  0  0  0  0  0
    8.0364   43.0795  133.3726 F   0  0  0  0  0  0  0  0  0  0  0  0
    9.4032   44.8094  133.9713 F   0  0  0  0  0  0  0  0  0  0  0  0
    7.2312   45.0825  133.7603 F   0  0  0  0  0  0  0  0  0  0  0  0
    9.7896   42.8299  131.2814 C   0  0  0  0  0  0  0  0  0  0  0  0
   12.9267   45.1522  133.6619 C   0  0  0  0  0  0  0  0  0  0  0  0
   11.8630   44.4769  133.0033 N   0  0  0  0  0  0  0  0  0  0  0  0
   11.5125   44.9553  131.7093 C   0  0  0  0  0  0  0  0  0  0  0  0
   11.7166   44.0194  130.5903 C   0  0  0  0  0  0  0  0  0  0  0  0
   11.1601   42.6873  130.9025 N   0  0  0  0  0  0  0  0  0  0  0  0
   12.0393   42.2420  131.9877 C   0  0  0  0  0  0  0  0  0  0  0  0
   11.7716   43.0733  133.1865 C   0  0  0  0  0  0  0  0  0  0  0  0
 36 37  1  0  0  0
 37 38  1  0  0  0
 38 39  1  0  0  0
 39 40  1  0  0  0
 40 35  1  0  0  0
 35 25  1  0  0  0
 25 26  2  0  0  0
 26 27  1  0  0  0
 27 28  2  0  0  0
 28 29  1  0  0  0
 29 30  2  0  0  0
 30 31  1  0  0  0
 31 32  1  0  0  0
 31 33  1  0  0  0
 31 34  1  0  0  0
 28  1  1  0  0  0
  1  2  2  0  0  0
  1  3  1  0  0  0
  3  5  1  0  0  0
  5  6  2  0  0  0
  6  7  1  0  0  0
  7  8  2  0  0  0
  8  9  1  0  0  0
  8 10  1  0  0  0
 10 12  1  0  0  0
 12 13  1  0  0  0
 13 14  2  0  0  0
 13 16  1  0  0  0
 16 17  2  0  0  0
 17 18  1  0  0  0
 18 19  2  0  0  0
 19 20  1  0  0  0
 20 21  2  0  0  0
 21 22  1  0  0  0
 22 23  2  0  0  0
 23 24  1  0  0  0
 10 11  2  0  0  0
 40 41  1  0  0  0
 41 42  1  0  0  0
 42 37  1  0  0  0
 30 25  1  0  0  0
 11  5  1  0  0  0
 24 16  1  0  0  0
 24 19  1  0  0  0
  3  4  1  0  0  0
 12 15  1  0  0  0
M  END
> <minimizedAffinity>
6.77719

> <CNNscore>
0.1728418171

> <CNNaffinity>
7.0553865433

> <CNN_VS>
1.2194658518

> <CNNaffinity_variance>
0.3076984286

$$$$
[H]/C(C(=O)N([H])c1c(OC([H])([H])[H])c([H])c2nc([H])nc(N([H])c3c([H])c([H])c(F)c(Cl)c3[H])c2c1[H])=C(/[H])C([H])([H])N(C([H])([H])[H])C([H])([H])[H]


 32 34  0  0  0  0  0  0  0  0999 V2000
    8.1210   45.7971  128.8786 C   0  0  0  0  0  0  0  0  0  0  0  0
    6.9213   46.4089  128.5918 C   0  0  0  0  0  0  0  0  0  0  0  0
    6.5955   47.6407  129.1188 C   0  0  0  0  0  0  0  0  0  0  0  0
    5.4387   48.2568  128.8602 N   0  0  0  0  0  0  0  0  0  0  0  0
    5.1619   49.4587  129.3988 C   0  0  0  0  0  0  0  0  0  0  0  0
    5.9973   50.1009  130.2044 N   0  0  0  0  0  0  0  0  0  0  0  0
    7.1976   49.5042  130.4965 C   0  0  0  0  0  0  0  0  0  0  0  0
    7.5027   48.2746  129.9577 C   0  0  0  0  0  0  0  0  0  0  0  0
    8.7137   47.6211  130.2271 C   0  0  0  0  0  0  0  0  0  0  0  0
    9.0461   46.3968  129.7078 C   0  0  0  0  0  0  0  0  0  0  0  0
   10.2552   45.7294  129.9706 N   0  0  0  0  0  0  0  0  0  0  0  0
   10.6078   45.0807  131.1617 C   0  0  0  0  0  0  0  0  0  0  0  0
    9.8630   45.0174  132.1655 O   0  0  0  0  0  0  0  0  0  0  0  0
   10.9518   45.7386  129.1550 H   0  0  0  0  0  0  0  0  0  0  0  0
   11.9159   44.4291  131.2710 C   0  0  0  0  0  0  0  0  0  0  0  0
   12.7786   44.3164  130.3055 C   0  0  0  0  0  0  0  0  0  0  0  0
   14.1088   43.6489  130.4236 C   0  0  0  0  0  0  0  0  0  0  0  0
   14.9170   43.8544  129.3096 N   0  0  0  0  0  0  0  0  0  0  0  0
   14.8005   45.0374  128.5517 C   0  0  0  0  0  0  0  0  0  0  0  0
   15.6838   42.7894  128.7843 C   0  0  0  0  0  0  0  0  0  0  0  0
    8.6721   43.4728  129.1665 C   0  0  0  0  0  0  0  0  0  0  0  0
    8.4067   44.5683  128.3317 O   0  0  0  0  0  0  0  0  0  0  0  0
    8.1368   50.1732  131.3141 N   0  0  0  0  0  0  0  0  0  0  0  0
    8.3037   51.2004  131.3439 H   0  0  0  0  0  0  0  0  0  0  0  0
    8.9619   49.4027  132.2130 C   0  0  0  0  0  0  0  0  0  0  0  0
   10.3464   49.5260  132.1364 C   0  0  0  0  0  0  0  0  0  0  0  0
   11.1186   48.7581  132.9700 C   0  0  0  0  0  0  0  0  0  0  0  0
   10.5553   47.8817  133.8667 C   0  0  0  0  0  0  0  0  0  0  0  0
   11.3697   47.1362  134.6792 F   0  0  0  0  0  0  0  0  0  0  0  0
    9.2073   47.7523  133.9503 C   0  0  0  0  0  0  0  0  0  0  0  0
    8.4848   46.6325  135.0949 Cl  0  0  0  0  0  0  0  0  0  0  0  0
    8.4000   48.5334  133.1010 C   0  0  0  0  0  0  0  0  0  0  0  0
 21 22  1  0  0  0
 22  1  1  0  0  0
  1  2  2  0  0  0
  2  3  1  0  0  0
  3  4  2  0  0  0
  4  5  1  0  0  0
  5  6  2  0  0  0
  6  7  1  0  0  0
  7 23  1  0  0  0
 23 25  1  0  0  0
 25 26  2  0  0  0
 26 27  1  0  0  0
 27 28  2  0  0  0
 28 29  1  0  0  0
 28 30  1  0  0  0
 30 31  1  0  0  0
 30 32  2  0  0  0
  7  8  2  0  0  0
  8  9  1  0  0  0
  9 10  2  0  0  0
 10 11  1  0  0  0
 11 12  1  0  0  0
 12 13  2  0  0  0
 12 15  1  0  0  0
 15 16  2  0  0  0
 16 17  1  0  0  0
 17 18  1  0  0  0
 18 19  1  0  0  0
 18 20  1  0  0  0
 10  1  1  0  0  0
  8  3  1  0  0  0
 32 25  1  0  0  0
 23 24  1  0  0  0
 11 14  1  0  0  0
M  END
> <minimizedAffinity>
4.62746

> <CNNscore>
0.3572408259

> <CNNaffinity>
7.6784873009

> <CNN_VS>
2.7430691719

> <CNNaffinity_variance>
0.5677261353

$$$$
[H]/C(C(=O)N([H])c1c(OC([H])([H])[H])c([H])c2nc([H])nc(N([H])c3c([H])c([H])c(F)c(Cl)c3[H])c2c1[H])=C(/[H])C([H])([H])N(C([H])([H])[H])C([H])([H])[H]


 32 34  0  0  0  0  0  0  0  0999 V2000
    7.5209   46.8245  129.0413 C   0  0  0  0  0  0  0  0  0  0  0  0
    7.0330   48.0195  128.5617 C   0  0  0  0  0  0  0  0  0  0  0  0
    7.3128   49.2160  129.1873 C   0  0  0  0  0  0  0  0  0  0  0  0
    6.8516   50.3897  128.7465 N   0  0  0  0  0  0  0  0  0  0  0  0
    7.1486   51.5334  129.3906 C   0  0  0  0  0  0  0  0  0  0  0  0
    7.9017   51.5754  130.4817 N   0  0  0  0  0  0  0  0  0  0  0  0
    8.3968   50.3925  130.9689 C   0  0  0  0  0  0  0  0  0  0  0  0
    8.1061   49.2097  130.3272 C   0  0  0  0  0  0  0  0  0  0  0  0
    8.5845   47.9741  130.7860 C   0  0  0  0  0  0  0  0  0  0  0  0
    8.3116   46.7799  130.1708 C   0  0  0  0  0  0  0  0  0  0  0  0
    8.7828   45.5340  130.6205 N   0  0  0  0  0  0  0  0  0  0  0  0
    8.3111   44.8138  131.7261 C   0  0  0  0  0  0  0  0  0  0  0  0
    7.3841   45.2083  132.4686 O   0  0  0  0  0  0  0  0  0  0  0  0
    9.5827   45.1258  130.0339 H   0  0  0  0  0  0  0  0  0  0  0  0
    8.9161   43.5213  132.0595 C   0  0  0  0  0  0  0  0  0  0  0  0
    9.7630   43.3182  133.0243 C   0  0  0  0  0  0  0  0  0  0  0  0
   10.3772   41.9987  133.3566 C   0  0  0  0  0  0  0  0  0  0  0  0
   11.3842   41.6327  132.4686 N   0  0  0  0  0  0  0  0  0  0  0  0
   12.3061   42.5911  132.0005 C   0  0  0  0  0  0  0  0  0  0  0  0
   11.3494   40.3670  131.8403 C   0  0  0  0  0  0  0  0  0  0  0  0
    8.2155   44.6908  128.1732 C   0  0  0  0  0  0  0  0  0  0  0  0
    7.2182   45.6537  128.3869 O   0  0  0  0  0  0  0  0  0  0  0  0
    9.2409   50.3954  132.1028 N   0  0  0  0  0  0  0  0  0  0  0  0
    9.7481   51.2186  132.4889 H   0  0  0  0  0  0  0  0  0  0  0  0
    9.4462   49.1661  132.8302 C   0  0  0  0  0  0  0  0  0  0  0  0
    8.5688   48.8318  133.8580 C   0  0  0  0  0  0  0  0  0  0  0  0
    8.7994   47.6803  134.5664 C   0  0  0  0  0  0  0  0  0  0  0  0
    9.8676   46.8633  134.2816 C   0  0  0  0  0  0  0  0  0  0  0  0
   10.0554   45.7224  135.0180 F   0  0  0  0  0  0  0  0  0  0  0  0
   10.7298   47.1786  133.2827 C   0  0  0  0  0  0  0  0  0  0  0  0
   12.0959   46.1365  132.9171 Cl  0  0  0  0  0  0  0  0  0  0  0  0
   10.5073   48.3580  132.5458 C   0  0  0  0  0  0  0  0  0  0  0  0
 21 22  1  0  0  0
 22  1  1  0  0  0
  1  2  2  0  0  0
  2  3  1  0  0  0
  3  4  2  0  0  0
  4  5  1  0  0  0
  5  6  2  0  0  0
  6  7  1  0  0  0
  7 23  1  0  0  0
 23 25  1  0  0  0
 25 26  2  0  0  0
 26 27  1  0  0  0
 27 28  2  0  0  0
 28 29  1  0  0  0
 28 30  1  0  0  0
 30 31  1  0  0  0
 30 32  2  0  0  0
  7  8  2  0  0  0
  8  9  1  0  0  0
  9 10  2  0  0  0
 10 11  1  0  0  0
 11 12  1  0  0  0
 12 13  2  0  0  0
 12 15  1  0  0  0
 15 16  2  0  0  0
 16 17  1  0  0  0
 17 18  1  0  0  0
 18 19  1  0  0  0
 18 20  1  0  0  0
 10  1  1  0  0  0
  8  3  1  0  0  0
 32 25  1  0  0  0
 23 24  1  0  0  0
 11 14  1  0  0  0
M  END
> <minimizedAffinity>
2.82623

> <CNNscore>
0.3391329646

> <CNNaffinity>
7.6013426781

> <CNN_VS>
2.5778658390

> <CNNaffinity_variance>
0.3897005022

$$$$
[H]/C(C(=O)N([H])c1c(OC([H])([H])[H])c([H])c2nc([H])nc(N([H])c3c([H])c([H])c(F)c(Cl)c3[H])c2c1[H])=C(/[H])C([H])([H])N(C([H])([H])[H])C([H])([H])[H]


 32 34  0  0  0  0  0  0  0  0999 V2000
    5.9604   47.3212  129.3658 C   0  0  0  0  0  0  0  0  0  0  0  0
    5.5136   48.6180  129.2442 C   0  0  0  0  0  0  0  0  0  0  0  0
    6.2876   49.6879  129.6413 C   0  0  0  0  0  0  0  0  0  0  0  0
    5.8796   50.9557  129.5377 N   0  0  0  0  0  0  0  0  0  0  0  0
    6.6682   51.9692  129.9403 C   0  0  0  0  0  0  0  0  0  0  0  0
    7.8766   51.7857  130.4556 N   0  0  0  0  0  0  0  0  0  0  0  0
    8.3356   50.4989  130.5799 C   0  0  0  0  0  0  0  0  0  0  0  0
    7.5465   49.4459  130.1753 C   0  0  0  0  0  0  0  0  0  0  0  0
    7.9674   48.1127  130.2838 C   0  0  0  0  0  0  0  0  0  0  0  0
    7.2050   47.0430  129.8918 C   0  0  0  0  0  0  0  0  0  0  0  0
    7.6132   45.7017  129.9963 N   0  0  0  0  0  0  0  0  0  0  0  0
    7.7378   44.9577  131.1772 C   0  0  0  0  0  0  0  0  0  0  0  0
    7.4926   45.4150  132.3161 O   0  0  0  0  0  0  0  0  0  0  0  0
    7.8434   45.2352  129.0582 H   0  0  0  0  0  0  0  0  0  0  0  0
    8.1780   43.5615  131.1097 C   0  0  0  0  0  0  0  0  0  0  0  0
    9.4155   43.1696  131.0437 C   0  0  0  0  0  0  0  0  0  0  0  0
    9.8565   41.7451  130.9728 C   0  0  0  0  0  0  0  0  0  0  0  0
   11.0442   41.5125  131.6598 N   0  0  0  0  0  0  0  0  0  0  0  0
   11.4096   40.2023  132.0304 C   0  0  0  0  0  0  0  0  0  0  0  0
   11.7714   42.5953  132.2045 C   0  0  0  0  0  0  0  0  0  0  0  0
    3.8375   46.1906  129.4242 C   0  0  0  0  0  0  0  0  0  0  0  0
    5.1569   46.2829  128.9572 O   0  0  0  0  0  0  0  0  0  0  0  0
    9.6353   50.2596  131.0816 N   0  0  0  0  0  0  0  0  0  0  0  0
   10.4531   50.8985  130.9987 H   0  0  0  0  0  0  0  0  0  0  0  0
    9.9014   49.0293  131.7875 C   0  0  0  0  0  0  0  0  0  0  0  0
   10.7307   48.0771  131.2014 C   0  0  0  0  0  0  0  0  0  0  0  0
   10.9427   46.8964  131.8661 C   0  0  0  0  0  0  0  0  0  0  0  0
   10.3579   46.6424  133.0839 C   0  0  0  0  0  0  0  0  0  0  0  0
   10.6012   45.4470  133.7094 F   0  0  0  0  0  0  0  0  0  0  0  0
    9.5474   47.5623  133.6649 C   0  0  0  0  0  0  0  0  0  0  0  0
    8.7983   47.2399  135.2208 Cl  0  0  0  0  0  0  0  0  0  0  0  0
    9.3190   48.7799  132.9952 C   0  0  0  0  0  0  0  0  0  0  0  0
 21 22  1  0  0  0
 22  1  1  0  0  0
  1  2  2  0  0  0
  2  3  1  0  0  0
  3  4  2  0  0  0
  4  5  1  0  0  0
  5  6  2  0  0  0
  6  7  1  0  0  0
  7 23  1  0  0  0
 23 25  1  0  0  0
 25 26  2  0  0  0
 26 27  1  0  0  0
 27 28  2  0  0  0
 28 29  1  0  0  0
 28 30  1  0  0  0
 30 31  1  0  0  0
 30 32  2  0  0  0
  7  8  2  0  0  0
  8  9  1  0  0  0
  9 10  2  0  0  0
 10 11  1  0  0  0
 11 12  1  0  0  0
 12 13  2  0  0  0
 12 15  1  0  0  0
 15 16  2  0  0  0
 16 17  1  0  0  0
 17 18  1  0  0  0
 18 19  1  0  0  0
 18 20  1  0  0  0
 10  1  1  0  0  0
  8  3  1  0  0  0
 32 25  1  0  0  0
 23 24  1  0  0  0
 11 14  1  0  0  0
M  END
> <minimizedAffinity>
3.76569

> <CNNscore>
0.3356287479

> <CNNaffinity>
7.6616783142

> <CNN_VS>
2.5714795589

> <CNNaffinity_variance>
0.2771506310

$$$$
[H]/C(C(=O)N([H])c1c(OC([H])([H])[H])c([H])c2nc([H])nc(N([H])c3c([H])c([H])c(F)c(Cl)c3[H])c2c1[H])=C(/[H])C([H])([H])N(C([H])([H])[H])C([H])([H])[H]


 32 34  0  0  0  0  0  0  0  0999 V2000
    9.1362   49.1086  132.2606 C   0  0  0  0  0  0  0  0  0  0  0  0
    8.1860   49.5469  131.3657 C   0  0  0  0  0  0  0  0  0  0  0  0
    7.5827   48.6851  130.4742 C   0  0  0  0  0  0  0  0  0  0  0  0
    6.6601   49.0822  129.5935 N   0  0  0  0  0  0  0  0  0  0  0  0
    6.0989   48.2059  128.7401 C   0  0  0  0  0  0  0  0  0  0  0  0
    6.4141   46.9178  128.7136 N   0  0  0  0  0  0  0  0  0  0  0  0
    7.3574   46.4668  129.6017 C   0  0  0  0  0  0  0  0  0  0  0  0
    7.9457   47.3447  130.4841 C   0  0  0  0  0  0  0  0  0  0  0  0
    8.9166   46.9352  131.4091 C   0  0  0  0  0  0  0  0  0  0  0  0
    9.5217   47.7846  132.2988 C   0  0  0  0  0  0  0  0  0  0  0  0
   10.4975   47.3884  133.2302 N   0  0  0  0  0  0  0  0  0  0  0  0
   11.6043   46.5664  132.9795 C   0  0  0  0  0  0  0  0  0  0  0  0
   11.8628   46.0711  131.8596 O   0  0  0  0  0  0  0  0  0  0  0  0
   10.3463   47.7734  134.2199 H   0  0  0  0  0  0  0  0  0  0  0  0
   12.5316   46.2491  134.0690 C   0  0  0  0  0  0  0  0  0  0  0  0
   13.4759   47.0317  134.4996 C   0  0  0  0  0  0  0  0  0  0  0  0
   14.4187   46.7006  135.6088 C   0  0  0  0  0  0  0  0  0  0  0  0
   14.5872   47.7510  136.5060 N   0  0  0  0  0  0  0  0  0  0  0  0
   13.7916   48.9104  136.4050 C   0  0  0  0  0  0  0  0  0  0  0  0
   15.7081   47.7747  137.3668 C   0  0  0  0  0  0  0  0  0  0  0  0
    9.6333   51.3790  132.8826 C   0  0  0  0  0  0  0  0  0  0  0  0
    9.7132   50.0012  133.1330 O   0  0  0  0  0  0  0  0  0  0  0  0
    7.6907   45.0936  129.6391 N   0  0  0  0  0  0  0  0  0  0  0  0
    7.0200   44.2977  129.6137 H   0  0  0  0  0  0  0  0  0  0  0  0
    9.0795   44.7085  129.7143 C   0  0  0  0  0  0  0  0  0  0  0  0
    9.9798   45.2342  128.7918 C   0  0  0  0  0  0  0  0  0  0  0  0
   11.2886   44.8287  128.8509 C   0  0  0  0  0  0  0  0  0  0  0  0
   11.7188   43.9247  129.7928 C   0  0  0  0  0  0  0  0  0  0  0  0
   13.0376   43.5509  129.8117 F   0  0  0  0  0  0  0  0  0  0  0  0
   10.8509   43.4050  130.6968 C   0  0  0  0  0  0  0  0  0  0  0  0
   11.3980   42.2491  131.9012 Cl  0  0  0  0  0  0  0  0  0  0  0  0
    9.5031   43.8108  130.6494 C   0  0  0  0  0  0  0  0  0  0  0  0
 21 22  1  0  0  0
 22  1  1  0  0  0
  1  2  2  0  0  0
  2  3  1  0  0  0
  3  4  2  0  0  0
  4  5  1  0  0  0
  5  6  2  0  0  0
  6  7  1  0  0  0
  7 23  1  0  0  0
 23 25  1  0  0  0
 25 26  2  0  0  0
 26 27  1  0  0  0
 27 28  2  0  0  0
 28 29  1  0  0  0
 28 30  1  0  0  0
 30 31  1  0  0  0
 30 32  2  0  0  0
  7  8  2  0  0  0
  8  9  1  0  0  0
  9 10  2  0  0  0
 10 11  1  0  0  0
 11 12  1  0  0  0
 12 13  2  0  0  0
 12 15  1  0  0  0
 15 16  2  0  0  0
 16 17  1  0  0  0
 17 18  1  0  0  0
 18 19  1  0  0  0
 18 20  1  0  0  0
 10  1  1  0  0  0
  8  3  1  0  0  0
 32 25  1  0  0  0
 23 24  1  0  0  0
 11 14  1  0  0  0
M  END
> <minimizedAffinity>
4.54270

> <CNNscore>
0.3194030821

> <CNNaffinity>
7.7779512405

> <CNN_VS>
2.4843015671

> <CNNaffinity_variance>
0.5932068229

$$$$
[H]/C(C(=O)N([H])c1c(OC([H])([H])[H])c([H])c2nc([H])nc(N([H])c3c([H])c([H])c(F)c(Cl)c3[H])c2c1[H])=C(/[H])C([H])([H])N(C([H])([H])[H])C([H])([H])[H]


 32 34  0  0  0  0  0  0  0  0999 V2000
    5.7186   47.3039  129.5075 C   0  0  0  0  0  0  0  0  0  0  0  0
    5.3273   48.6115  129.3260 C   0  0  0  0  0  0  0  0  0  0  0  0
    6.1664   49.6638  129.6261 C   0  0  0  0  0  0  0  0  0  0  0  0
    5.8133   50.9418  129.4626 N   0  0  0  0  0  0  0  0  0  0  0  0
    6.6646   51.9375  129.7709 C   0  0  0  0  0  0  0  0  0  0  0  0
    7.8844   51.7258  130.2470 N   0  0  0  0  0  0  0  0  0  0  0  0
    8.2884   50.4276  130.4303 C   0  0  0  0  0  0  0  0  0  0  0  0
    7.4347   49.3924  130.1223 C   0  0  0  0  0  0  0  0  0  0  0  0
    7.7978   48.0490  130.2941 C   0  0  0  0  0  0  0  0  0  0  0  0
    6.9705   46.9966  129.9986 C   0  0  0  0  0  0  0  0  0  0  0  0
    7.3205   45.6454  130.1673 N   0  0  0  0  0  0  0  0  0  0  0  0
    8.4309   44.9961  129.6115 C   0  0  0  0  0  0  0  0  0  0  0  0
    9.2695   45.5612  128.8742 O   0  0  0  0  0  0  0  0  0  0  0  0
    6.6474   45.0887  130.7898 H   0  0  0  0  0  0  0  0  0  0  0  0
    8.6518   43.5742  129.8895 C   0  0  0  0  0  0  0  0  0  0  0  0
    9.7335   43.0723  130.4066 C   0  0  0  0  0  0  0  0  0  0  0  0
    9.9525   41.6220  130.6849 C   0  0  0  0  0  0  0  0  0  0  0  0
   10.6521   41.3985  131.8669 N   0  0  0  0  0  0  0  0  0  0  0  0
   10.7539   42.4145  132.8391 C   0  0  0  0  0  0  0  0  0  0  0  0
   11.4668   40.2514  132.0021 C   0  0  0  0  0  0  0  0  0  0  0  0
    3.5756   46.2441  129.7778 C   0  0  0  0  0  0  0  0  0  0  0  0
    4.8510   46.2839  129.1953 O   0  0  0  0  0  0  0  0  0  0  0  0
    9.5961   50.1550  130.8925 N   0  0  0  0  0  0  0  0  0  0  0  0
   10.4512   50.7091  130.6788 H   0  0  0  0  0  0  0  0  0  0  0  0
    9.8161   49.0144  131.7488 C   0  0  0  0  0  0  0  0  0  0  0  0
    9.2360   48.9945  133.0141 C   0  0  0  0  0  0  0  0  0  0  0  0
    9.4862   47.9220  133.8315 C   0  0  0  0  0  0  0  0  0  0  0  0
   10.2889   46.8820  133.4270 C   0  0  0  0  0  0  0  0  0  0  0  0
   10.5084   45.8319  134.2803 F   0  0  0  0  0  0  0  0  0  0  0  0
   10.8602   46.8903  132.1964 C   0  0  0  0  0  0  0  0  0  0  0  0
   11.8868   45.5627  131.6771 Cl  0  0  0  0  0  0  0  0  0  0  0  0
   10.6136   47.9845  131.3448 C   0  0  0  0  0  0  0  0  0  0  0  0
 21 22  1  0  0  0
 22  1  1  0  0  0
  1  2  2  0  0  0
  2  3  1  0  0  0
  3  4  2  0  0  0
  4  5  1  0  0  0
  5  6  2  0  0  0
  6  7  1  0  0  0
  7 23  1  0  0  0
 23 25  1  0  0  0
 25 26  2  0  0  0
 26 27  1  0  0  0
 27 28  2  0  0  0
 28 29  1  0  0  0
 28 30  1  0  0  0
 30 31  1  0  0  0
 30 32  2  0  0  0
  7  8  2  0  0  0
  8  9  1  0  0  0
  9 10  2  0  0  0
 10 11  1  0  0  0
 11 12  1  0  0  0
 12 13  2  0  0  0
 12 15  1  0  0  0
 15 16  2  0  0  0
 16 17  1  0  0  0
 17 18  1  0  0  0
 18 19  1  0  0  0
 18 20  1  0  0  0
 10  1  1  0  0  0
  8  3  1  0  0  0
 32 25  1  0  0  0
 23 24  1  0  0  0
 11 14  1  0  0  0
M  END
> <minimizedAffinity>
2.86113

> <CNNscore>
0.2639612257

> <CNNaffinity>
7.5903997421

> <CNN_VS>
2.0035712719

> <CNNaffinity_variance>
0.2394821197

$$$$
[H]/C(C(=O)N([H])c1c(OC([H])([H])[H])c([H])c2nc([H])nc(N([H])c3c([H])c([H])c(F)c(Cl)c3[H])c2c1[H])=C(/[H])C([H])([H])N(C([H])([H])[H])C([H])([H])[H]


 32 34  0  0  0  0  0  0  0  0999 V2000
    8.8325   49.3819  130.7070 C   0  0  0  0  0  0  0  0  0  0  0  0
    8.0215   48.6787  129.8446 C   0  0  0  0  0  0  0  0  0  0  0  0
    8.2643   47.3551  129.5438 C   0  0  0  0  0  0  0  0  0  0  0  0
    7.4965   46.6487  128.7094 N   0  0  0  0  0  0  0  0  0  0  0  0
    7.7726   45.3588  128.4431 C   0  0  0  0  0  0  0  0  0  0  0  0
    8.8009   44.7132  128.9771 N   0  0  0  0  0  0  0  0  0  0  0  0
    9.6157   45.4009  129.8403 C   0  0  0  0  0  0  0  0  0  0  0  0
    9.3534   46.7215  130.1276 C   0  0  0  0  0  0  0  0  0  0  0  0
   10.1567   47.4695  131.0003 C   0  0  0  0  0  0  0  0  0  0  0  0
    9.9231   48.7854  131.3051 C   0  0  0  0  0  0  0  0  0  0  0  0
   10.7207   49.5478  132.1764 N   0  0  0  0  0  0  0  0  0  0  0  0
   10.2818   50.5681  133.0308 C   0  0  0  0  0  0  0  0  0  0  0  0
    9.0882   50.9333  133.1215 O   0  0  0  0  0  0  0  0  0  0  0  0
   11.7629   49.2944  132.1576 H   0  0  0  0  0  0  0  0  0  0  0  0
   11.2501   51.2674  133.8800 C   0  0  0  0  0  0  0  0  0  0  0  0
   11.2819   52.5517  134.0771 C   0  0  0  0  0  0  0  0  0  0  0  0
   12.2731   53.2576  134.9420 C   0  0  0  0  0  0  0  0  0  0  0  0
   13.1058   54.1106  134.2238 N   0  0  0  0  0  0  0  0  0  0  0  0
   12.8998   54.3144  132.8441 C   0  0  0  0  0  0  0  0  0  0  0  0
   14.3027   54.5876  134.8049 C   0  0  0  0  0  0  0  0  0  0  0  0
    7.3416   51.2644  130.5587 C   0  0  0  0  0  0  0  0  0  0  0  0
    8.5548   50.7006  130.9802 O   0  0  0  0  0  0  0  0  0  0  0  0
   10.6962   44.7395  130.4674 N   0  0  0  0  0  0  0  0  0  0  0  0
   11.4338   44.1799  129.9911 H   0  0  0  0  0  0  0  0  0  0  0  0
   10.8355   44.8231  131.9013 C   0  0  0  0  0  0  0  0  0  0  0  0
   12.0207   44.3956  132.4935 C   0  0  0  0  0  0  0  0  0  0  0  0
   12.1236   44.4441  133.8602 C   0  0  0  0  0  0  0  0  0  0  0  0
   11.0901   44.9013  134.6428 C   0  0  0  0  0  0  0  0  0  0  0  0
   11.2416   44.9311  136.0049 F   0  0  0  0  0  0  0  0  0  0  0  0
    9.9301   45.3201  134.0775 C   0  0  0  0  0  0  0  0  0  0  0  0
    8.6077   45.9044  135.0753 Cl  0  0  0  0  0  0  0  0  0  0  0  0
    9.8081   45.2764  132.6751 C   0  0  0  0  0  0  0  0  0  0  0  0
 21 22  1  0  0  0
 22  1  1  0  0  0
  1  2  2  0  0  0
  2  3  1  0  0  0
  3  4  2  0  0  0
  4  5  1  0  0  0
  5  6  2  0  0  0
  6  7  1  0  0  0
  7 23  1  0  0  0
 23 25  1  0  0  0
 25 26  2  0  0  0
 26 27  1  0  0  0
 27 28  2  0  0  0
 28 29  1  0  0  0
 28 30  1  0  0  0
 30 31  1  0  0  0
 30 32  2  0  0  0
  7  8  2  0  0  0
  8  9  1  0  0  0
  9 10  2  0  0  0
 10 11  1  0  0  0
 11 12  1  0  0  0
 12 13  2  0  0  0
 12 15  1  0  0  0
 15 16  2  0  0  0
 16 17  1  0  0  0
 17 18  1  0  0  0
 18 19  1  0  0  0
 18 20  1  0  0  0
 10  1  1  0  0  0
  8  3  1  0  0  0
 32 25  1  0  0  0
 23 24  1  0  0  0
 11 14  1  0  0  0
M  END
> <minimizedAffinity>
19.31408

> <CNNscore>
0.2239884138

> <CNNaffinity>
7.1981897354

> <CNN_VS>
1.6123111248

> <CNNaffinity_variance>
0.3030701280

$$$$
[H]/C(C(=O)N([H])c1c(OC([H])([H])[H])c([H])c2nc([H])nc(N([H])c3c([H])c([H])c(F)c(Cl)c3[H])c2c1[H])=C(/[H])C([H])([H])N(C([H])([H])[H])C([H])([H])[H]


 32 34  0  0  0  0  0  0  0  0999 V2000
    9.5318   49.2723  132.0541 C   0  0  0  0  0  0  0  0  0  0  0  0
    8.8694   50.1008  131.1762 C   0  0  0  0  0  0  0  0  0  0  0  0
    8.1033   49.5962  130.1466 C   0  0  0  0  0  0  0  0  0  0  0  0
    7.4518   50.3752  129.2787 N   0  0  0  0  0  0  0  0  0  0  0  0
    6.7169   49.8387  128.2871 C   0  0  0  0  0  0  0  0  0  0  0  0
    6.5904   48.5309  128.1058 N   0  0  0  0  0  0  0  0  0  0  0  0
    7.2428   47.6936  128.9749 C   0  0  0  0  0  0  0  0  0  0  0  0
    8.0009   48.2194  129.9968 C   0  0  0  0  0  0  0  0  0  0  0  0
    8.6895   47.4076  130.9095 C   0  0  0  0  0  0  0  0  0  0  0  0
    9.4532   47.9001  131.9357 C   0  0  0  0  0  0  0  0  0  0  0  0
   10.1501   47.0985  132.8567 N   0  0  0  0  0  0  0  0  0  0  0  0
   11.2873   46.3230  132.5939 C   0  0  0  0  0  0  0  0  0  0  0  0
   11.8345   46.2499  131.4707 O   0  0  0  0  0  0  0  0  0  0  0  0
    9.7414   47.1068  133.8484 H   0  0  0  0  0  0  0  0  0  0  0  0
   11.8954   45.5411  133.6740 C   0  0  0  0  0  0  0  0  0  0  0  0
   11.7166   44.2685  133.8685 C   0  0  0  0  0  0  0  0  0  0  0  0
   12.3377   43.4787  134.9727 C   0  0  0  0  0  0  0  0  0  0  0  0
   11.6343   43.5779  136.1694 N   0  0  0  0  0  0  0  0  0  0  0  0
   11.9652   42.7512  137.2624 C   0  0  0  0  0  0  0  0  0  0  0  0
   10.4357   44.3249  136.2271 C   0  0  0  0  0  0  0  0  0  0  0  0
    9.9930   51.1022  133.5465 C   0  0  0  0  0  0  0  0  0  0  0  0
   10.2851   49.8167  133.0675 O   0  0  0  0  0  0  0  0  0  0  0  0
    7.0991   46.2933  128.8463 N   0  0  0  0  0  0  0  0  0  0  0  0
    6.2903   45.7953  128.4199 H   0  0  0  0  0  0  0  0  0  0  0  0
    8.1489   45.4307  129.3327 C   0  0  0  0  0  0  0  0  0  0  0  0
    9.3271   45.3172  128.6000 C   0  0  0  0  0  0  0  0  0  0  0  0
   10.2999   44.4636  129.0538 C   0  0  0  0  0  0  0  0  0  0  0  0
   10.1321   43.7293  130.2036 C   0  0  0  0  0  0  0  0  0  0  0  0
   11.1342   42.8899  130.6166 F   0  0  0  0  0  0  0  0  0  0  0  0
    8.9882   43.8310  130.9259 C   0  0  0  0  0  0  0  0  0  0  0  0
    8.7710   42.8932  132.3955 Cl  0  0  0  0  0  0  0  0  0  0  0  0
    7.9791   44.7029  130.4734 C   0  0  0  0  0  0  0  0  0  0  0  0
 21 22  1  0  0  0
 22  1  1  0  0  0
  1  2  2  0  0  0
  2  3  1  0  0  0
  3  4  2  0  0  0
  4  5  1  0  0  0
  5  6  2  0  0  0
  6  7  1  0  0  0
  7 23  1  0  0  0
 23 25  1  0  0  0
 25 26  2  0  0  0
 26 27  1  0  0  0
 27 28  2  0  0  0
 28 29  1  0  0  0
 28 30  1  0  0  0
 30 31  1  0  0  0
 30 32  2  0  0  0
  7  8  2  0  0  0
  8  9  1  0  0  0
  9 10  2  0  0  0
 10 11  1  0  0  0
 11 12  1  0  0  0
 12 13  2  0  0  0
 12 15  1  0  0  0
 15 16  2  0  0  0
 16 17  1  0  0  0
 17 18  1  0  0  0
 18 19  1  0  0  0
 18 20  1  0  0  0
 10  1  1  0  0  0
  8  3  1  0  0  0
 32 25  1  0  0  0
 23 24  1  0  0  0
 11 14  1  0  0  0
M  END
> <minimizedAffinity>
1.18281

> <CNNscore>
0.2089959234

> <CNNaffinity>
7.6920967102

> <CNN_VS>
1.6076169014

> <CNNaffinity_variance>
0.2863887548

$$$$
[H]/C(C(=O)N([H])c1c(OC([H])([H])[H])c([H])c2nc([H])nc(N([H])c3c([H])c([H])c(F)c(Cl)c3[H])c2c1[H])=C(/[H])C([H])([H])N(C([H])([H])[H])C([H])([H])[H]


 32 34  0  0  0  0  0  0  0  0999 V2000
    8.9940   50.0119  131.4724 C   0  0  0  0  0  0  0  0  0  0  0  0
    8.0048   50.6950  130.8009 C   0  0  0  0  0  0  0  0  0  0  0  0
    7.0179   50.0327  130.1017 C   0  0  0  0  0  0  0  0  0  0  0  0
    6.0476   50.6686  129.4394 N   0  0  0  0  0  0  0  0  0  0  0  0
    5.1055   49.9808  128.7681 C   0  0  0  0  0  0  0  0  0  0  0  0
    5.0742   48.6558  128.7180 N   0  0  0  0  0  0  0  0  0  0  0  0
    6.0521   47.9623  129.3849 C   0  0  0  0  0  0  0  0  0  0  0  0
    7.0268   48.6442  130.0781 C   0  0  0  0  0  0  0  0  0  0  0  0
    8.0496   47.9832  130.7731 C   0  0  0  0  0  0  0  0  0  0  0  0
    9.0346   48.6331  131.4707 C   0  0  0  0  0  0  0  0  0  0  0  0
   10.0667   47.9836  132.1702 N   0  0  0  0  0  0  0  0  0  0  0  0
    9.9812   47.4233  133.4518 C   0  0  0  0  0  0  0  0  0  0  0  0
    8.9413   47.4359  134.1480 O   0  0  0  0  0  0  0  0  0  0  0  0
   10.9966   47.9310  131.6382 H   0  0  0  0  0  0  0  0  0  0  0  0
   11.1585   46.7780  134.0395 C   0  0  0  0  0  0  0  0  0  0  0  0
   11.9419   45.9451  133.4215 C   0  0  0  0  0  0  0  0  0  0  0  0
   13.1384   45.2896  134.0275 C   0  0  0  0  0  0  0  0  0  0  0  0
   12.8985   43.9723  134.4068 N   0  0  0  0  0  0  0  0  0  0  0  0
   13.8612   43.2561  135.1469 C   0  0  0  0  0  0  0  0  0  0  0  0
   11.8079   43.2631  133.8539 C   0  0  0  0  0  0  0  0  0  0  0  0
    9.6353   51.3645  133.3560 C   0  0  0  0  0  0  0  0  0  0  0  0
    9.9594   50.7111  132.1579 O   0  0  0  0  0  0  0  0  0  0  0  0
    6.0311   46.5490  129.3959 N   0  0  0  0  0  0  0  0  0  0  0  0
    5.2165   45.9448  129.1609 H   0  0  0  0  0  0  0  0  0  0  0  0
    7.2299   45.8303  129.7554 C   0  0  0  0  0  0  0  0  0  0  0  0
    7.3269   45.2649  131.0237 C   0  0  0  0  0  0  0  0  0  0  0  0
    8.4877   44.6191  131.3649 C   0  0  0  0  0  0  0  0  0  0  0  0
    9.5412   44.5229  130.4872 C   0  0  0  0  0  0  0  0  0  0  0  0
   10.6805   43.8665  130.8748 F   0  0  0  0  0  0  0  0  0  0  0  0
    9.4587   45.0702  129.2485 C   0  0  0  0  0  0  0  0  0  0  0  0
   10.8037   44.9491  128.1249 Cl  0  0  0  0  0  0  0  0  0  0  0  0
    8.2737   45.7373  128.8825 C   0  0  0  0  0  0  0  0  0  0  0  0
 21 22  1  0  0  0
 22  1  1  0  0  0
  1  2  2  0  0  0
  2  3  1  0  0  0
  3  4  2  0  0  0
  4  5  1  0  0  0
  5  6  2  0  0  0
  6  7  1  0  0  0
  7 23  1  0  0  0
 23 25  1  0  0  0
 25 26  2  0  0  0
 26 27  1  0  0  0
 27 28  2  0  0  0
 28 29  1  0  0  0
 28 30  1  0  0  0
 30 31  1  0  0  0
 30 32  2  0  0  0
  7  8  2  0  0  0
  8  9  1  0  0  0
  9 10  2  0  0  0
 10 11  1  0  0  0
 11 12  1  0  0  0
 12 13  2  0  0  0
 12 15  1  0  0  0
 15 16  2  0  0  0
 16 17  1  0  0  0
 17 18  1  0  0  0
 18 19  1  0  0  0
 18 20  1  0  0  0
 10  1  1  0  0  0
  8  3  1  0  0  0
 32 25  1  0  0  0
 23 24  1  0  0  0
 11 14  1  0  0  0
M  END
> <minimizedAffinity>
3.18280

> <CNNscore>
0.2075800002

> <CNNaffinity>
7.6149077415

> <CNN_VS>
1.5807025433

> <CNNaffinity_variance>
0.3718994260

$$$$
[H]/C(C(=O)N([H])c1c(OC([H])([H])[H])c([H])c2nc([H])nc(N([H])c3c([H])c([H])c(F)c(Cl)c3[H])c2c1[H])=C(/[H])C([H])([H])N(C([H])([H])[H])C([H])([H])[H]


 32 34  0  0  0  0  0  0  0  0999 V2000
    9.5403   49.9005  132.5426 C   0  0  0  0  0  0  0  0  0  0  0  0
   10.3150   49.1277  133.3785 C   0  0  0  0  0  0  0  0  0  0  0  0
   10.2077   47.7531  133.3954 C   0  0  0  0  0  0  0  0  0  0  0  0
   10.9440   46.9783  134.1967 N   0  0  0  0  0  0  0  0  0  0  0  0
   10.8041   45.6399  134.1811 C   0  0  0  0  0  0  0  0  0  0  0  0
    9.9468   45.0107  133.3885 N   0  0  0  0  0  0  0  0  0  0  0  0
    9.1704   45.7681  132.5485 C   0  0  0  0  0  0  0  0  0  0  0  0
    9.2955   47.1391  132.5471 C   0  0  0  0  0  0  0  0  0  0  0  0
    8.5240   47.9584  131.7106 C   0  0  0  0  0  0  0  0  0  0  0  0
    8.6237   49.3254  131.6870 C   0  0  0  0  0  0  0  0  0  0  0  0
    7.8557   50.1590  130.8552 N   0  0  0  0  0  0  0  0  0  0  0  0
    7.8277   50.1415  129.4543 C   0  0  0  0  0  0  0  0  0  0  0  0
    8.5061   49.3559  128.7552 O   0  0  0  0  0  0  0  0  0  0  0  0
    7.2431   50.8652  131.3811 H   0  0  0  0  0  0  0  0  0  0  0  0
    6.9654   51.0840  128.7360 C   0  0  0  0  0  0  0  0  0  0  0  0
    7.3615   51.9008  127.8059 C   0  0  0  0  0  0  0  0  0  0  0  0
    6.4776   52.8602  127.0799 C   0  0  0  0  0  0  0  0  0  0  0  0
    7.1272   54.0436  126.7420 N   0  0  0  0  0  0  0  0  0  0  0  0
    7.0678   54.5390  125.4235 C   0  0  0  0  0  0  0  0  0  0  0  0
    8.0464   54.6293  127.6421 C   0  0  0  0  0  0  0  0  0  0  0  0
    9.4199   51.9880  133.7328 C   0  0  0  0  0  0  0  0  0  0  0  0
    9.6790   51.2684  132.5570 O   0  0  0  0  0  0  0  0  0  0  0  0
    8.2760   45.1365  131.6545 N   0  0  0  0  0  0  0  0  0  0  0  0
    7.2386   45.2253  131.6583 H   0  0  0  0  0  0  0  0  0  0  0  0
    8.8034   44.2821  130.6180 C   0  0  0  0  0  0  0  0  0  0  0  0
    9.6215   43.2128  130.9717 C   0  0  0  0  0  0  0  0  0  0  0  0
   10.1474   42.4333  129.9733 C   0  0  0  0  0  0  0  0  0  0  0  0
    9.8832   42.6877  128.6485 C   0  0  0  0  0  0  0  0  0  0  0  0
   10.4320   41.8793  127.6871 F   0  0  0  0  0  0  0  0  0  0  0  0
    9.0879   43.7271  128.2913 C   0  0  0  0  0  0  0  0  0  0  0  0
    8.7491   44.0548  126.5990 Cl  0  0  0  0  0  0  0  0  0  0  0  0
    8.5402   44.5376  129.3045 C   0  0  0  0  0  0  0  0  0  0  0  0
 21 22  1  0  0  0
 22  1  1  0  0  0
  1  2  2  0  0  0
  2  3  1  0  0  0
  3  4  2  0  0  0
  4  5  1  0  0  0
  5  6  2  0  0  0
  6  7  1  0  0  0
  7 23  1  0  0  0
 23 25  1  0  0  0
 25 26  2  0  0  0
 26 27  1  0  0  0
 27 28  2  0  0  0
 28 29  1  0  0  0
 28 30  1  0  0  0
 30 31  1  0  0  0
 30 32  2  0  0  0
  7  8  2  0  0  0
  8  9  1  0  0  0
  9 10  2  0  0  0
 10 11  1  0  0  0
 11 12  1  0  0  0
 12 13  2  0  0  0
 12 15  1  0  0  0
 15 16  2  0  0  0
 16 17  1  0  0  0
 17 18  1  0  0  0
 18 19  1  0  0  0
 18 20  1  0  0  0
 10  1  1  0  0  0
  8  3  1  0  0  0
 32 25  1  0  0  0
 23 24  1  0  0  0
 11 14  1  0  0  0
M  END
> <minimizedAffinity>
6.58787

> <CNNscore>
0.1871545762

> <CNNaffinity>
6.9700622559

> <CNN_VS>
1.3044790030

> <CNNaffinity_variance>
0.2946307659

$$$$
[H]c1c([H])c(C(F)(F)F)c([H])c([H])c1N([H])C(=O)N1C([H])([H])C([H])([H])OC2(C1([H])[H])C([H])([H])C([H])([H])N(C(=O)C1([H])C([H])([H])C1([H])[H])C([H])([H])C2([H])[H]


 30 33  0  0  0  0  0  0  0  0999 V2000
    7.9187   49.2220  129.7497 N   0  0  0  0  0  0  0  0  0  0  0  0
    8.2329   48.0241  129.1286 C   0  0  0  0  0  0  0  0  0  0  0  0
    8.2675   47.8961  127.8971 O   0  0  0  0  0  0  0  0  0  0  0  0
    8.5380   46.8561  129.9544 N   0  0  0  0  0  0  0  0  0  0  0  0
    8.8620   45.6351  129.2740 C   0  0  0  0  0  0  0  0  0  0  0  0
    9.2600   44.5327  130.1493 C   0  0  0  0  0  0  0  0  0  0  0  0
    8.9373   44.5677  131.4645 O   0  0  0  0  0  0  0  0  0  0  0  0
    9.0668   45.7855  132.0769 C   0  0  0  0  0  0  0  0  0  0  0  0
    8.2970   45.6775  133.4049 C   0  0  0  0  0  0  0  0  0  0  0  0
    8.9648   44.7722  134.3716 C   0  0  0  0  0  0  0  0  0  0  0  0
    9.9695   43.9521  133.6842 N   0  0  0  0  0  0  0  0  0  0  0  0
   11.0298   44.6668  133.0157 C   0  0  0  0  0  0  0  0  0  0  0  0
   10.5203   46.0307  132.5529 C   0  0  0  0  0  0  0  0  0  0  0  0
    9.7984   42.5480  133.6758 C   0  0  0  0  0  0  0  0  0  0  0  0
    8.6952   42.0629  134.1571 O   0  0  0  0  0  0  0  0  0  0  0  0
    8.5091   46.9680  131.3709 C   0  0  0  0  0  0  0  0  0  0  0  0
    7.9041   49.2687  130.8119 H   0  0  0  0  0  0  0  0  0  0  0  0
    7.1001   52.7249  127.5501 C   0  0  0  0  0  0  0  0  0  0  0  0
    7.0290   52.7098  128.9382 C   0  0  0  0  0  0  0  0  0  0  0  0
    7.2751   51.5901  129.6835 C   0  0  0  0  0  0  0  0  0  0  0  0
    7.6150   50.4116  129.0703 C   0  0  0  0  0  0  0  0  0  0  0  0
    7.7037   50.3660  127.6598 C   0  0  0  0  0  0  0  0  0  0  0  0
    7.4432   51.5233  126.9641 C   0  0  0  0  0  0  0  0  0  0  0  0
    6.4269   53.5714  125.4691 F   0  0  0  0  0  0  0  0  0  0  0  0
    6.8441   53.9501  126.7398 C   0  0  0  0  0  0  0  0  0  0  0  0
    8.0360   54.6614  126.7194 F   0  0  0  0  0  0  0  0  0  0  0  0
    5.8033   54.6569  127.3390 F   0  0  0  0  0  0  0  0  0  0  0  0
   10.7483   41.5569  133.1723 C   0  0  0  0  0  0  0  0  0  0  0  0
   11.7597   42.1716  132.1784 C   0  0  0  0  0  0  0  0  0  0  0  0
   10.8550   41.0066  131.8433 C   0  0  0  0  0  0  0  0  0  0  0  0
 24 25  1  0  0  0
 25 26  1  0  0  0
 25 27  1  0  0  0
 25 18  1  0  0  0
 18 19  2  0  0  0
 19 20  1  0  0  0
 20 21  2  0  0  0
 21  1  1  0  0  0
  1  2  1  0  0  0
  2  3  2  0  0  0
  2  4  1  0  0  0
  4  5  1  0  0  0
  5  6  1  0  0  0
  6  7  1  0  0  0
  7  8  1  0  0  0
  8  9  1  0  0  0
  9 10  1  0  0  0
 10 11  1  0  0  0
 11 12  1  0  0  0
 12 13  1  0  0  0
 11 14  1  0  0  0
 14 15  2  0  0  0
 14 28  1  0  0  0
 28 29  1  0  0  0
 29 30  1  0  0  0
  8 16  1  0  0  0
 21 22  1  0  0  0
 22 23  2  0  0  0
 23 18  1  0  0  0
 16  4  1  0  0  0
 13  8  1  0  0  0
 30 28  1  0  0  0
  1 17  1  0  0  0
M  END
> <minimizedAffinity>
13.45284

> <CNNscore>
0.2052676827

> <CNNaffinity>
6.5660066605

> <CNN_VS>
1.3477889299

> <CNNaffinity_variance>
0.6735499501

$$$$
[H]c1c([H])c(C(F)(F)F)c([H])c([H])c1N([H])C(=O)N1C([H])([H])C([H])([H])OC2(C1([H])[H])C([H])([H])C([H])([H])N(C(=O)C1([H])C([H])([H])C1([H])[H])C([H])([H])C2([H])[H]


 30 33  0  0  0  0  0  0  0  0999 V2000
    5.8306   48.2235  129.4672 N   0  0  0  0  0  0  0  0  0  0  0  0
    7.0716   48.6183  129.9400 C   0  0  0  0  0  0  0  0  0  0  0  0
    7.4742   49.7877  129.8719 O   0  0  0  0  0  0  0  0  0  0  0  0
    7.9499   47.6185  130.5467 N   0  0  0  0  0  0  0  0  0  0  0  0
    9.2253   48.0672  131.0274 C   0  0  0  0  0  0  0  0  0  0  0  0
   10.0140   47.0465  131.7173 C   0  0  0  0  0  0  0  0  0  0  0  0
    9.7284   45.7355  131.5307 O   0  0  0  0  0  0  0  0  0  0  0  0
    8.3975   45.4167  131.4862 C   0  0  0  0  0  0  0  0  0  0  0  0
    8.3194   43.9994  130.8919 C   0  0  0  0  0  0  0  0  0  0  0  0
    8.8537   42.9702  131.8167 C   0  0  0  0  0  0  0  0  0  0  0  0
    9.6345   43.6069  132.8841 N   0  0  0  0  0  0  0  0  0  0  0  0
    8.9303   44.5549  133.7132 C   0  0  0  0  0  0  0  0  0  0  0  0
    7.8135   45.2153  132.9067 C   0  0  0  0  0  0  0  0  0  0  0  0
   11.0108   43.2965  132.9857 C   0  0  0  0  0  0  0  0  0  0  0  0
   11.5454   42.5716  132.0514 O   0  0  0  0  0  0  0  0  0  0  0  0
    7.5189   46.2676  130.6425 C   0  0  0  0  0  0  0  0  0  0  0  0
    5.5420   47.2038  129.5531 H   0  0  0  0  0  0  0  0  0  0  0  0
    3.0899   50.7561  127.5043 C   0  0  0  0  0  0  0  0  0  0  0  0
    3.4415   50.9630  128.8331 C   0  0  0  0  0  0  0  0  0  0  0  0
    4.3165   50.1555  129.5054 C   0  0  0  0  0  0  0  0  0  0  0  0
    4.8974   49.0865  128.8728 C   0  0  0  0  0  0  0  0  0  0  0  0
    4.5783   48.8261  127.5200 C   0  0  0  0  0  0  0  0  0  0  0  0
    3.6907   49.6719  126.8973 C   0  0  0  0  0  0  0  0  0  0  0  0
    2.1075   51.2578  125.4346 F   0  0  0  0  0  0  0  0  0  0  0  0
    2.1457   51.6454  126.7690 C   0  0  0  0  0  0  0  0  0  0  0  0
    2.6187   52.9400  126.9345 F   0  0  0  0  0  0  0  0  0  0  0  0
    0.8720   51.4631  127.3041 F   0  0  0  0  0  0  0  0  0  0  0  0
   11.9219   43.7117  134.0513 C   0  0  0  0  0  0  0  0  0  0  0  0
   12.3111   45.2031  133.9370 C   0  0  0  0  0  0  0  0  0  0  0  0
   13.3153   44.0720  133.9545 C   0  0  0  0  0  0  0  0  0  0  0  0
 24 25  1  0  0  0
 25 26  1  0  0  0
 25 27  1  0  0  0
 25 18  1  0  0  0
 18 19  2  0  0  0
 19 20  1  0  0  0
 20 21  2  0  0  0
 21  1  1  0  0  0
  1  2  1  0  0  0
  2  3  2  0  0  0
  2  4  1  0  0  0
  4  5  1  0  0  0
  5  6  1  0  0  0
  6  7  1  0  0  0
  7  8  1  0  0  0
  8  9  1  0  0  0
  9 10  1  0  0  0
 10 11  1  0  0  0
 11 12  1  0  0  0
 12 13  1  0  0  0
 11 14  1  0  0  0
 14 15  2  0  0  0
 14 28  1  0  0  0
 28 29  1  0  0  0
 29 30  1  0  0  0
  8 16  1  0  0  0
 21 22  1  0  0  0
 22 23  2  0  0  0
 23 18  1  0  0  0
 16  4  1  0  0  0
 13  8  1  0  0  0
 30 28  1  0  0  0
  1 17  1  0  0  0
M  END
> <minimizedAffinity>
15.88508

> <CNNscore>
0.1637515426

> <CNNaffinity>
6.6282539368

> <CNN_VS>
1.0853867531

> <CNNaffinity_variance>
0.4714127183

$$$$
[H]c1c([H])c(C(F)(F)F)c([H])c([H])c1N([H])C(=O)N1C([H])([H])C([H])([H])OC2(C1([H])[H])C([H])([H])C([H])([H])N(C(=O)C1([H])C([H])([H])C1([H])[H])C([H])([H])C2([H])[H]


 30 33  0  0  0  0  0  0  0  0999 V2000
    8.0456   49.9296  129.6842 N   0  0  0  0  0  0  0  0  0  0  0  0
    7.5031   48.6556  129.7294 C   0  0  0  0  0  0  0  0  0  0  0  0
    6.5959   48.2857  128.9715 O   0  0  0  0  0  0  0  0  0  0  0  0
    8.0173   47.7005  130.7106 N   0  0  0  0  0  0  0  0  0  0  0  0
    7.4321   46.3905  130.7237 C   0  0  0  0  0  0  0  0  0  0  0  0
    8.0578   45.4490  131.6521 C   0  0  0  0  0  0  0  0  0  0  0  0
    8.8191   45.9146  132.6712 O   0  0  0  0  0  0  0  0  0  0  0  0
    9.6440   46.9642  132.3666 C   0  0  0  0  0  0  0  0  0  0  0  0
   10.0940   47.5562  133.7138 C   0  0  0  0  0  0  0  0  0  0  0  0
   11.0067   46.6490  134.4514 C   0  0  0  0  0  0  0  0  0  0  0  0
   10.9491   45.2992  133.8778 N   0  0  0  0  0  0  0  0  0  0  0  0
   11.3131   45.1793  132.4868 C   0  0  0  0  0  0  0  0  0  0  0  0
   10.9805   46.4775  131.7531 C   0  0  0  0  0  0  0  0  0  0  0  0
   10.4930   44.2403  134.6974 C   0  0  0  0  0  0  0  0  0  0  0  0
   10.0207   44.5337  135.8700 O   0  0  0  0  0  0  0  0  0  0  0  0
    9.0591   48.0912  131.5948 C   0  0  0  0  0  0  0  0  0  0  0  0
    8.8223   50.1882  130.3628 H   0  0  0  0  0  0  0  0  0  0  0  0
    6.9353   52.8416  126.8442 C   0  0  0  0  0  0  0  0  0  0  0  0
    6.8941   53.1090  128.2076 C   0  0  0  0  0  0  0  0  0  0  0  0
    7.2344   52.1859  129.1572 C   0  0  0  0  0  0  0  0  0  0  0  0
    7.6443   50.9308  128.7868 C   0  0  0  0  0  0  0  0  0  0  0  0
    7.7068   50.6007  127.4132 C   0  0  0  0  0  0  0  0  0  0  0  0
    7.3506   51.5699  126.5049 C   0  0  0  0  0  0  0  0  0  0  0  0
    6.1450   53.1945  124.6645 F   0  0  0  0  0  0  0  0  0  0  0  0
    6.5763   53.8537  125.8097 C   0  0  0  0  0  0  0  0  0  0  0  0
    7.7190   54.6108  125.5904 F   0  0  0  0  0  0  0  0  0  0  0  0
    5.5115   54.6107  126.2945 F   0  0  0  0  0  0  0  0  0  0  0  0
   10.4931   42.8168  134.3632 C   0  0  0  0  0  0  0  0  0  0  0  0
   10.5485   42.5765  132.8375 C   0  0  0  0  0  0  0  0  0  0  0  0
    9.4537   42.0403  133.7330 C   0  0  0  0  0  0  0  0  0  0  0  0
 24 25  1  0  0  0
 25 26  1  0  0  0
 25 27  1  0  0  0
 25 18  1  0  0  0
 18 19  2  0  0  0
 19 20  1  0  0  0
 20 21  2  0  0  0
 21  1  1  0  0  0
  1  2  1  0  0  0
  2  3  2  0  0  0
  2  4  1  0  0  0
  4  5  1  0  0  0
  5  6  1  0  0  0
  6  7  1  0  0  0
  7  8  1  0  0  0
  8  9  1  0  0  0
  9 10  1  0  0  0
 10 11  1  0  0  0
 11 12  1  0  0  0
 12 13  1  0  0  0
 11 14  1  0  0  0
 14 15  2  0  0  0
 14 28  1  0  0  0
 28 29  1  0  0  0
 29 30  1  0  0  0
  8 16  1  0  0  0
 21 22  1  0  0  0
 22 23  2  0  0  0
 23 18  1  0  0  0
 16  4  1  0  0  0
 13  8  1  0  0  0
 30 28  1  0  0  0
  1 17  1  0  0  0
M  END
> <minimizedAffinity>
15.52931

> <CNNscore>
0.0902587399

> <CNNaffinity>
6.2484216690

> <CNN_VS>
0.5639746785

> <CNNaffinity_variance>
0.3444933593

$$$$
[H]c1c([H])c(C(F)(F)F)c([H])c([H])c1N([H])C(=O)N1C([H])([H])C([H])([H])OC2(C1([H])[H])C([H])([H])C([H])([H])N(C(=O)C1([H])C([H])([H])C1([H])[H])C([H])([H])C2([H])[H]


 30 33  0  0  0  0  0  0  0  0999 V2000
    6.0590   49.0416  129.8709 N   0  0  0  0  0  0  0  0  0  0  0  0
    6.5024   47.7875  129.4832 C   0  0  0  0  0  0  0  0  0  0  0  0
    6.1034   47.2233  128.4552 O   0  0  0  0  0  0  0  0  0  0  0  0
    7.4831   47.0933  130.3172 N   0  0  0  0  0  0  0  0  0  0  0  0
    7.9200   45.7983  129.8802 C   0  0  0  0  0  0  0  0  0  0  0  0
    8.9767   45.2004  130.6961 C   0  0  0  0  0  0  0  0  0  0  0  0
    9.1930   45.6536  131.9543 O   0  0  0  0  0  0  0  0  0  0  0  0
    9.1196   47.0109  132.1188 C   0  0  0  0  0  0  0  0  0  0  0  0
    9.0070   47.2500  133.6348 C   0  0  0  0  0  0  0  0  0  0  0  0
   10.2620   46.9185  134.3524 C   0  0  0  0  0  0  0  0  0  0  0  0
   11.1414   46.1206  133.4896 N   0  0  0  0  0  0  0  0  0  0  0  0
   11.5471   46.7337  132.2481 C   0  0  0  0  0  0  0  0  0  0  0  0
   10.4632   47.6992  131.7715 C   0  0  0  0  0  0  0  0  0  0  0  0
   11.4752   44.8089  133.9007 C   0  0  0  0  0  0  0  0  0  0  0  0
   10.8819   44.3264  134.9492 O   0  0  0  0  0  0  0  0  0  0  0  0
    7.9635   47.7123  131.5029 C   0  0  0  0  0  0  0  0  0  0  0  0
    6.4381   49.4734  130.7655 H   0  0  0  0  0  0  0  0  0  0  0  0
    3.1526   51.1877  127.6971 C   0  0  0  0  0  0  0  0  0  0  0  0
    4.4432   51.6781  127.8578 C   0  0  0  0  0  0  0  0  0  0  0  0
    5.4076   51.0164  128.5662 C   0  0  0  0  0  0  0  0  0  0  0  0
    5.1284   49.8098  129.1550 C   0  0  0  0  0  0  0  0  0  0  0  0
    3.8320   49.2602  129.0252 C   0  0  0  0  0  0  0  0  0  0  0  0
    2.9038   49.9726  128.3025 C   0  0  0  0  0  0  0  0  0  0  0  0
    2.0376   51.3503  125.6403 F   0  0  0  0  0  0  0  0  0  0  0  0
    2.1061   51.9044  126.9133 C   0  0  0  0  0  0  0  0  0  0  0  0
    2.4797   53.2412  126.8931 F   0  0  0  0  0  0  0  0  0  0  0  0
    0.8778   51.6960  127.5374 F   0  0  0  0  0  0  0  0  0  0  0  0
   12.4371   43.9128  133.2606 C   0  0  0  0  0  0  0  0  0  0  0  0
   12.2871   43.8999  131.7224 C   0  0  0  0  0  0  0  0  0  0  0  0
   12.1909   42.6618  132.5861 C   0  0  0  0  0  0  0  0  0  0  0  0
 24 25  1  0  0  0
 25 26  1  0  0  0
 25 27  1  0  0  0
 25 18  1  0  0  0
 18 19  2  0  0  0
 19 20  1  0  0  0
 20 21  2  0  0  0
 21  1  1  0  0  0
  1  2  1  0  0  0
  2  3  2  0  0  0
  2  4  1  0  0  0
  4  5  1  0  0  0
  5  6  1  0  0  0
  6  7  1  0  0  0
  7  8  1  0  0  0
  8  9  1  0  0  0
  9 10  1  0  0  0
 10 11  1  0  0  0
 11 12  1  0  0  0
 12 13  1  0  0  0
 11 14  1  0  0  0
 14 15  2  0  0  0
 14 28  1  0  0  0
 28 29  1  0  0  0
 29 30  1  0  0  0
  8 16  1  0  0  0
 21 22  1  0  0  0
 22 23  2  0  0  0
 23 18  1  0  0  0
 16  4  1  0  0  0
 13  8  1  0  0  0
 30 28  1  0  0  0
  1 17  1  0  0  0
M  END
> <minimizedAffinity>
15.12222

> <CNNscore>
0.0741273016

> <CNNaffinity>
6.4820261002

> <CNN_VS>
0.4804950953

> <CNNaffinity_variance>
0.3657323718

$$$$
[H]c1c(Cl)c([H])c2c(c1[H])c(C1=C(c3c([H])n(C([H])([H])[H])c4c([H])c(C(F)(F)F)c([H])c([H])c34)C(=O)N([H])C1=O)c([H])n2C([H])([H])[H]


 33 37  0  0  0  0  0  0  0  0999 V2000
    7.2510   47.5604  129.6613 C   0  0  0  0  0  0  0  0  0  0  0  0
    7.5814   48.6043  130.3759 C   0  0  0  0  0  0  0  0  0  0  0  0
    6.6631   49.7189  130.0126 C   0  0  0  0  0  0  0  0  0  0  0  0
    6.6960   50.8682  130.4974 O   0  0  0  0  0  0  0  0  0  0  0  0
    5.7719   49.2707  129.0470 N   0  0  0  0  0  0  0  0  0  0  0  0
    6.0862   47.9403  128.7933 C   0  0  0  0  0  0  0  0  0  0  0  0
    5.5400   47.1115  127.9944 O   0  0  0  0  0  0  0  0  0  0  0  0
    4.9885   49.7863  128.5422 H   0  0  0  0  0  0  0  0  0  0  0  0
    9.4857   43.2809  128.1562 C   0  0  0  0  0  0  0  0  0  0  0  0
    8.7783   44.2602  128.9875 N   0  0  0  0  0  0  0  0  0  0  0  0
    8.3621   45.4840  128.5662 C   0  0  0  0  0  0  0  0  0  0  0  0
    7.7747   46.1844  129.5693 C   0  0  0  0  0  0  0  0  0  0  0  0
    7.8437   45.3057  130.6815 C   0  0  0  0  0  0  0  0  0  0  0  0
    7.4703   45.3484  131.9965 C   0  0  0  0  0  0  0  0  0  0  0  0
    7.7049   44.2927  132.8899 C   0  0  0  0  0  0  0  0  0  0  0  0
    8.3279   43.1483  132.4660 C   0  0  0  0  0  0  0  0  0  0  0  0
    8.6171   41.8302  133.5954 Cl  0  0  0  0  0  0  0  0  0  0  0  0
    8.7072   43.0841  131.1405 C   0  0  0  0  0  0  0  0  0  0  0  0
    8.4668   44.1383  130.2704 C   0  0  0  0  0  0  0  0  0  0  0  0
    8.5809   48.8139  131.4440 C   0  0  0  0  0  0  0  0  0  0  0  0
    8.8709   49.9791  132.0788 C   0  0  0  0  0  0  0  0  0  0  0  0
    9.9082   49.7767  132.9422 N   0  0  0  0  0  0  0  0  0  0  0  0
   10.5282   50.7632  133.7844 C   0  0  0  0  0  0  0  0  0  0  0  0
   10.3175   48.4911  132.8980 C   0  0  0  0  0  0  0  0  0  0  0  0
   11.3343   47.8365  133.5596 C   0  0  0  0  0  0  0  0  0  0  0  0
   11.5790   46.5114  133.3114 C   0  0  0  0  0  0  0  0  0  0  0  0
   10.7508   45.9024  132.3797 C   0  0  0  0  0  0  0  0  0  0  0  0
    9.7415   46.5631  131.7313 C   0  0  0  0  0  0  0  0  0  0  0  0
    9.4819   47.8914  131.9562 C   0  0  0  0  0  0  0  0  0  0  0  0
   12.6969   45.7330  133.9604 C   0  0  0  0  0  0  0  0  0  0  0  0
   13.4368   45.0852  132.9783 F   0  0  0  0  0  0  0  0  0  0  0  0
   13.5166   46.5060  134.7151 F   0  0  0  0  0  0  0  0  0  0  0  0
   12.1981   44.7047  134.7823 F   0  0  0  0  0  0  0  0  0  0  0  0
  9 10  1  0  0  0
 10 11  1  0  0  0
 11 12  2  0  0  0
 12  1  1  0  0  0
  1  2  2  0  0  0
  2  3  1  0  0  0
  3  4  2  0  0  0
  3  5  1  0  0  0
  5  6  1  0  0  0
  6  7  2  0  0  0
  2 20  1  0  0  0
 20 21  2  0  0  0
 21 22  1  0  0  0
 22 23  1  0  0  0
 22 24  1  0  0  0
 24 25  2  0  0  0
 25 26  1  0  0  0
 26 27  2  0  0  0
 27 28  1  0  0  0
 28 29  2  0  0  0
 26 30  1  0  0  0
 30 31  1  0  0  0
 30 32  1  0  0  0
 30 33  1  0  0  0
 12 13  1  0  0  0
 13 14  2  0  0  0
 14 15  1  0  0  0
 15 16  2  0  0  0
 16 17  1  0  0  0
 16 18  1  0  0  0
 18 19  2  0  0  0
 19 10  1  0  0  0
  6  1  1  0  0  0
 29 20  1  0  0  0
 19 13  1  0  0  0
 29 24  1  0  0  0
  5  8  1  0  0  0
M  END
> <minimizedAffinity>
-0.89543

> <CNNscore>
0.5932207108

> <CNNaffinity>
8.4099960327

> <CNN_VS>
4.9889836311

> <CNNaffinity_variance>
1.3014534712

$$$$
[H]c1c(Cl)c([H])c2c(c1[H])c(C1=C(c3c([H])n(C([H])([H])[H])c4c([H])c(C(F)(F)F)c([H])c([H])c34)C(=O)N([H])C1=O)c([H])n2C([H])([H])[H]


 33 37  0  0  0  0  0  0  0  0999 V2000
    7.7447   48.5384  130.3566 C   0  0  0  0  0  0  0  0  0  0  0  0
    7.7707   47.5747  129.4733 C   0  0  0  0  0  0  0  0  0  0  0  0
    6.5988   47.7472  128.5709 C   0  0  0  0  0  0  0  0  0  0  0  0
    6.3084   47.0002  127.6145 O   0  0  0  0  0  0  0  0  0  0  0  0
    5.8843   48.8683  128.9709 N   0  0  0  0  0  0  0  0  0  0  0  0
    6.5494   49.4006  130.0697 C   0  0  0  0  0  0  0  0  0  0  0  0
    6.2761   50.4310  130.7676 O   0  0  0  0  0  0  0  0  0  0  0  0
    4.9891   49.2898  128.5767 H   0  0  0  0  0  0  0  0  0  0  0  0
   10.7193   50.9817  133.6361 C   0  0  0  0  0  0  0  0  0  0  0  0
    9.9117   49.9290  133.0114 N   0  0  0  0  0  0  0  0  0  0  0  0
    9.3373   50.0139  131.7821 C   0  0  0  0  0  0  0  0  0  0  0  0
    8.6158   48.9021  131.4903 C   0  0  0  0  0  0  0  0  0  0  0  0
    8.7736   48.0845  132.6394 C   0  0  0  0  0  0  0  0  0  0  0  0
    8.3272   46.8570  133.0451 C   0  0  0  0  0  0  0  0  0  0  0  0
    8.6444   46.3059  134.2954 C   0  0  0  0  0  0  0  0  0  0  0  0
    9.4378   46.9921  135.1768 C   0  0  0  0  0  0  0  0  0  0  0  0
    9.8293   46.2911  136.7427 Cl  0  0  0  0  0  0  0  0  0  0  0  0
    9.9028   48.2305  134.7830 C   0  0  0  0  0  0  0  0  0  0  0  0
    9.5791   48.7603  133.5418 C   0  0  0  0  0  0  0  0  0  0  0  0
    8.7318   46.4847  129.2052 C   0  0  0  0  0  0  0  0  0  0  0  0
    9.3024   46.1690  128.0137 C   0  0  0  0  0  0  0  0  0  0  0  0
   10.0680   45.0491  128.1626 N   0  0  0  0  0  0  0  0  0  0  0  0
   10.8185   44.3801  127.1349 C   0  0  0  0  0  0  0  0  0  0  0  0
   10.0215   44.6094  129.4381 C   0  0  0  0  0  0  0  0  0  0  0  0
   10.6012   43.5163  130.0456 C   0  0  0  0  0  0  0  0  0  0  0  0
   10.3686   43.2587  131.3711 C   0  0  0  0  0  0  0  0  0  0  0  0
    9.5382   44.1540  132.0298 C   0  0  0  0  0  0  0  0  0  0  0  0
    8.9709   45.2387  131.4155 C   0  0  0  0  0  0  0  0  0  0  0  0
    9.1816   45.5134  130.0880 C   0  0  0  0  0  0  0  0  0  0  0  0
   10.9295   42.0626  132.1002 C   0  0  0  0  0  0  0  0  0  0  0  0
   10.2157   41.8643  133.2760 F   0  0  0  0  0  0  0  0  0  0  0  0
   10.9108   40.9283  131.3571 F   0  0  0  0  0  0  0  0  0  0  0  0
   12.2575   42.2864  132.5102 F   0  0  0  0  0  0  0  0  0  0  0  0
  9 10  1  0  0  0
 10 11  1  0  0  0
 11 12  2  0  0  0
 12  1  1  0  0  0
  1  2  2  0  0  0
  2  3  1  0  0  0
  3  4  2  0  0  0
  3  5  1  0  0  0
  5  6  1  0  0  0
  6  7  2  0  0  0
  2 20  1  0  0  0
 20 21  2  0  0  0
 21 22  1  0  0  0
 22 23  1  0  0  0
 22 24  1  0  0  0
 24 25  2  0  0  0
 25 26  1  0  0  0
 26 27  2  0  0  0
 27 28  1  0  0  0
 28 29  2  0  0  0
 26 30  1  0  0  0
 30 31  1  0  0  0
 30 32  1  0  0  0
 30 33  1  0  0  0
 12 13  1  0  0  0
 13 14  2  0  0  0
 14 15  1  0  0  0
 15 16  2  0  0  0
 16 17  1  0  0  0
 16 18  1  0  0  0
 18 19  2  0  0  0
 19 10  1  0  0  0
  6  1  1  0  0  0
 29 20  1  0  0  0
 19 13  1  0  0  0
 29 24  1  0  0  0
  5  8  1  0  0  0
M  END
> <minimizedAffinity>
1.92497

> <CNNscore>
0.4321805239

> <CNNaffinity>
7.9759292603

> <CNN_VS>
3.4470412731

> <CNNaffinity_variance>
0.8038476706

$$$$
[H]c1c(Cl)c([H])c2c(c1[H])c(C1=C(c3c([H])n(C([H])([H])[H])c4c([H])c(C(F)(F)F)c([H])c([H])c34)C(=O)N([H])C1=O)c([H])n2C([H])([H])[H]


 33 37  0  0  0  0  0  0  0  0999 V2000
    8.9377   44.4576  130.0833 C   0  0  0  0  0  0  0  0  0  0  0  0
    9.5366   44.0239  131.1616 C   0  0  0  0  0  0  0  0  0  0  0  0
   10.0982   42.6771  130.8647 C   0  0  0  0  0  0  0  0  0  0  0  0
   10.7307   41.9653  131.6712 O   0  0  0  0  0  0  0  0  0  0  0  0
    9.7991   42.3448  129.5504 N   0  0  0  0  0  0  0  0  0  0  0  0
    9.0849   43.4115  129.0163 C   0  0  0  0  0  0  0  0  0  0  0  0
    8.6071   43.5681  127.8456 O   0  0  0  0  0  0  0  0  0  0  0  0
   10.0226   41.4631  128.9962 H   0  0  0  0  0  0  0  0  0  0  0  0
    5.5124   47.8322  128.5169 C   0  0  0  0  0  0  0  0  0  0  0  0
    6.7186   47.2547  129.1186 N   0  0  0  0  0  0  0  0  0  0  0  0
    7.0582   45.9389  129.0739 C   0  0  0  0  0  0  0  0  0  0  0  0
    8.2069   45.6963  129.7547 C   0  0  0  0  0  0  0  0  0  0  0  0
    8.5862   46.9728  130.2451 C   0  0  0  0  0  0  0  0  0  0  0  0
    9.6060   47.4735  131.0065 C   0  0  0  0  0  0  0  0  0  0  0  0
    9.6994   48.8278  131.3596 C   0  0  0  0  0  0  0  0  0  0  0  0
    8.7510   49.7231  130.9394 C   0  0  0  0  0  0  0  0  0  0  0  0
    8.8782   51.4198  131.3882 Cl  0  0  0  0  0  0  0  0  0  0  0  0
    7.7168   49.2377  130.1650 C   0  0  0  0  0  0  0  0  0  0  0  0
    7.6404   47.8942  129.8250 C   0  0  0  0  0  0  0  0  0  0  0  0
    9.7877   44.6334  132.4842 C   0  0  0  0  0  0  0  0  0  0  0  0
    8.8813   44.8526  133.4717 C   0  0  0  0  0  0  0  0  0  0  0  0
    9.4875   45.5091  134.5031 N   0  0  0  0  0  0  0  0  0  0  0  0
    8.8680   45.9440  135.7255 C   0  0  0  0  0  0  0  0  0  0  0  0
   10.7892   45.7319  134.2233 C   0  0  0  0  0  0  0  0  0  0  0  0
   11.7768   46.3746  134.9386 C   0  0  0  0  0  0  0  0  0  0  0  0
   13.0357   46.5056  134.4137 C   0  0  0  0  0  0  0  0  0  0  0  0
   13.2315   45.9570  133.1545 C   0  0  0  0  0  0  0  0  0  0  0  0
   12.2426   45.3177  132.4552 C   0  0  0  0  0  0  0  0  0  0  0  0
   10.9724   45.1809  132.9553 C   0  0  0  0  0  0  0  0  0  0  0  0
   14.1601   47.2302  135.1118 C   0  0  0  0  0  0  0  0  0  0  0  0
   15.0866   47.6589  134.1688 F   0  0  0  0  0  0  0  0  0  0  0  0
   13.7367   48.2863  135.8499 F   0  0  0  0  0  0  0  0  0  0  0  0
   14.8760   46.3688  135.9646 F   0  0  0  0  0  0  0  0  0  0  0  0
  9 10  1  0  0  0
 10 11  1  0  0  0
 11 12  2  0  0  0
 12  1  1  0  0  0
  1  2  2  0  0  0
  2  3  1  0  0  0
  3  4  2  0  0  0
  3  5  1  0  0  0
  5  6  1  0  0  0
  6  7  2  0  0  0
  2 20  1  0  0  0
 20 21  2  0  0  0
 21 22  1  0  0  0
 22 23  1  0  0  0
 22 24  1  0  0  0
 24 25  2  0  0  0
 25 26  1  0  0  0
 26 27  2  0  0  0
 27 28  1  0  0  0
 28 29  2  0  0  0
 26 30  1  0  0  0
 30 31  1  0  0  0
 30 32  1  0  0  0
 30 33  1  0  0  0
 12 13  1  0  0  0
 13 14  2  0  0  0
 14 15  1  0  0  0
 15 16  2  0  0  0
 16 17  1  0  0  0
 16 18  1  0  0  0
 18 19  2  0  0  0
 19 10  1  0  0  0
  6  1  1  0  0  0
 29 20  1  0  0  0
 19 13  1  0  0  0
 29 24  1  0  0  0
  5  8  1  0  0  0
M  END
> <minimizedAffinity>
7.16442

> <CNNscore>
0.4205762744

> <CNNaffinity>
8.1294937134

> <CNN_VS>
3.4190721512

> <CNNaffinity_variance>
1.2532145977

$$$$
[H]c1c(Cl)c([H])c2c(c1[H])c(C1=C(c3c([H])n(C([H])([H])[H])c4c([H])c(C(F)(F)F)c([H])c([H])c34)C(=O)N([H])C1=O)c([H])n2C([H])([H])[H]


 33 37  0  0  0  0  0  0  0  0999 V2000
    7.9827   47.4271  129.6141 C   0  0  0  0  0  0  0  0  0  0  0  0
    8.1584   48.2016  130.6527 C   0  0  0  0  0  0  0  0  0  0  0  0
    7.2296   49.3587  130.5250 C   0  0  0  0  0  0  0  0  0  0  0  0
    7.1336   50.3001  131.3384 O   0  0  0  0  0  0  0  0  0  0  0  0
    6.4955   49.2191  129.3550 N   0  0  0  0  0  0  0  0  0  0  0  0
    6.9168   48.0393  128.7518 C   0  0  0  0  0  0  0  0  0  0  0  0
    6.5256   47.4920  127.6698 O   0  0  0  0  0  0  0  0  0  0  0  0
    5.7535   49.8535  128.9291 H   0  0  0  0  0  0  0  0  0  0  0  0
    8.9453   42.9813  127.4046 C   0  0  0  0  0  0  0  0  0  0  0  0
    9.1097   44.1981  128.2064 N   0  0  0  0  0  0  0  0  0  0  0  0
    8.1345   45.1169  128.4371 C   0  0  0  0  0  0  0  0  0  0  0  0
    8.5935   46.1570  129.1781 C   0  0  0  0  0  0  0  0  0  0  0  0
    9.9552   45.8321  129.4112 C   0  0  0  0  0  0  0  0  0  0  0  0
   11.0114   46.4142  130.0561 C   0  0  0  0  0  0  0  0  0  0  0  0
   12.2914   45.8415  130.0927 C   0  0  0  0  0  0  0  0  0  0  0  0
   12.5356   44.6444  129.4725 C   0  0  0  0  0  0  0  0  0  0  0  0
   14.1452   43.9350  129.5249 Cl  0  0  0  0  0  0  0  0  0  0  0  0
   11.4804   44.0385  128.8211 C   0  0  0  0  0  0  0  0  0  0  0  0
   10.2203   44.6195  128.7953 C   0  0  0  0  0  0  0  0  0  0  0  0
    9.0007   48.0843  131.8612 C   0  0  0  0  0  0  0  0  0  0  0  0
    9.6546   49.0853  132.5055 C   0  0  0  0  0  0  0  0  0  0  0  0
   10.3896   48.5594  133.5281 N   0  0  0  0  0  0  0  0  0  0  0  0
   11.2396   49.2830  134.4342 C   0  0  0  0  0  0  0  0  0  0  0  0
   10.2368   47.2192  133.5811 C   0  0  0  0  0  0  0  0  0  0  0  0
   10.7949   46.2717  134.4122 C   0  0  0  0  0  0  0  0  0  0  0  0
   10.5051   44.9439  134.2386 C   0  0  0  0  0  0  0  0  0  0  0  0
    9.6345   44.6402  133.2018 C   0  0  0  0  0  0  0  0  0  0  0  0
    9.0838   45.5914  132.3848 C   0  0  0  0  0  0  0  0  0  0  0  0
    9.3647   46.9261  132.5330 C   0  0  0  0  0  0  0  0  0  0  0  0
   11.1052   43.8418  135.0764 C   0  0  0  0  0  0  0  0  0  0  0  0
   12.4520   43.7060  134.7615 F   0  0  0  0  0  0  0  0  0  0  0  0
   10.9660   44.0493  136.4093 F   0  0  0  0  0  0  0  0  0  0  0  0
   10.5297   42.5934  134.7730 F   0  0  0  0  0  0  0  0  0  0  0  0
  9 10  1  0  0  0
 10 11  1  0  0  0
 11 12  2  0  0  0
 12  1  1  0  0  0
  1  2  2  0  0  0
  2  3  1  0  0  0
  3  4  2  0  0  0
  3  5  1  0  0  0
  5  6  1  0  0  0
  6  7  2  0  0  0
  2 20  1  0  0  0
 20 21  2  0  0  0
 21 22  1  0  0  0
 22 23  1  0  0  0
 22 24  1  0  0  0
 24 25  2  0  0  0
 25 26  1  0  0  0
 26 27  2  0  0  0
 27 28  1  0  0  0
 28 29  2  0  0  0
 26 30  1  0  0  0
 30 31  1  0  0  0
 30 32  1  0  0  0
 30 33  1  0  0  0
 12 13  1  0  0  0
 13 14  2  0  0  0
 14 15  1  0  0  0
 15 16  2  0  0  0
 16 17  1  0  0  0
 16 18  1  0  0  0
 18 19  2  0  0  0
 19 10  1  0  0  0
  6  1  1  0  0  0
 29 20  1  0  0  0
 19 13  1  0  0  0
 29 24  1  0  0  0
  5  8  1  0  0  0
M  END
> <minimizedAffinity>
1.24590

> <CNNscore>
0.4187775850

> <CNNaffinity>
8.1576747894

> <CNN_VS>
3.4162514210

> <CNNaffinity_variance>
1.7700275183

$$$$
[H]c1c(Cl)c([H])c2c(c1[H])c(C1=C(c3c([H])n(C([H])([H])[H])c4c([H])c(C(F)(F)F)c([H])c([H])c34)C(=O)N([H])C1=O)c([H])n2C([H])([H])[H]


 33 37  0  0  0  0  0  0  0  0999 V2000
    8.9804   48.6319  131.2929 C   0  0  0  0  0  0  0  0  0  0  0  0
    8.6910   48.0617  130.1525 C   0  0  0  0  0  0  0  0  0  0  0  0
    8.2621   49.1256  129.2029 C   0  0  0  0  0  0  0  0  0  0  0  0
    7.9065   48.9379  128.0216 O   0  0  0  0  0  0  0  0  0  0  0  0
    8.3191   50.3537  129.8478 N   0  0  0  0  0  0  0  0  0  0  0  0
    8.7608   50.1097  131.1433 C   0  0  0  0  0  0  0  0  0  0  0  0
    8.9769   50.9252  132.0982 O   0  0  0  0  0  0  0  0  0  0  0  0
    8.0743   51.3280  129.4940 H   0  0  0  0  0  0  0  0  0  0  0  0
    9.5355   47.5644  136.2047 C   0  0  0  0  0  0  0  0  0  0  0  0
    9.7427   47.5712  134.7530 N   0  0  0  0  0  0  0  0  0  0  0  0
    9.0786   48.3690  133.8749 C   0  0  0  0  0  0  0  0  0  0  0  0
    9.4523   48.1213  132.5940 C   0  0  0  0  0  0  0  0  0  0  0  0
   10.4213   47.0917  132.7168 C   0  0  0  0  0  0  0  0  0  0  0  0
   11.1942   46.3577  131.8600 C   0  0  0  0  0  0  0  0  0  0  0  0
   12.0719   45.3539  132.2953 C   0  0  0  0  0  0  0  0  0  0  0  0
   12.1946   45.0681  133.6297 C   0  0  0  0  0  0  0  0  0  0  0  0
   13.2989   43.8068  134.1647 Cl  0  0  0  0  0  0  0  0  0  0  0  0
   11.4268   45.8024  134.5108 C   0  0  0  0  0  0  0  0  0  0  0  0
   10.5636   46.7923  134.0622 C   0  0  0  0  0  0  0  0  0  0  0  0
    8.7853   46.6661  129.6756 C   0  0  0  0  0  0  0  0  0  0  0  0
    9.1058   46.2469  128.4241 C   0  0  0  0  0  0  0  0  0  0  0  0
    9.0044   44.8873  128.3638 N   0  0  0  0  0  0  0  0  0  0  0  0
    9.2380   44.0600  127.2114 C   0  0  0  0  0  0  0  0  0  0  0  0
    8.6224   44.3871  129.5580 C   0  0  0  0  0  0  0  0  0  0  0  0
    8.3654   43.0950  129.9634 C   0  0  0  0  0  0  0  0  0  0  0  0
    7.9474   42.8429  131.2436 C   0  0  0  0  0  0  0  0  0  0  0  0
    7.8125   43.9492  132.0700 C   0  0  0  0  0  0  0  0  0  0  0  0
    8.0743   45.2283  131.6562 C   0  0  0  0  0  0  0  0  0  0  0  0
    8.4859   45.5073  130.3775 C   0  0  0  0  0  0  0  0  0  0  0  0
    7.6050   41.4650  131.7541 C   0  0  0  0  0  0  0  0  0  0  0  0
    7.8154   40.5345  130.7434 F   0  0  0  0  0  0  0  0  0  0  0  0
    8.3146   41.1127  132.8548 F   0  0  0  0  0  0  0  0  0  0  0  0
    6.2376   41.3591  132.0717 F   0  0  0  0  0  0  0  0  0  0  0  0
  9 10  1  0  0  0
 10 11  1  0  0  0
 11 12  2  0  0  0
 12  1  1  0  0  0
  1  2  2  0  0  0
  2  3  1  0  0  0
  3  4  2  0  0  0
  3  5  1  0  0  0
  5  6  1  0  0  0
  6  7  2  0  0  0
  2 20  1  0  0  0
 20 21  2  0  0  0
 21 22  1  0  0  0
 22 23  1  0  0  0
 22 24  1  0  0  0
 24 25  2  0  0  0
 25 26  1  0  0  0
 26 27  2  0  0  0
 27 28  1  0  0  0
 28 29  2  0  0  0
 26 30  1  0  0  0
 30 31  1  0  0  0
 30 32  1  0  0  0
 30 33  1  0  0  0
 12 13  1  0  0  0
 13 14  2  0  0  0
 14 15  1  0  0  0
 15 16  2  0  0  0
 16 17  1  0  0  0
 16 18  1  0  0  0
 18 19  2  0  0  0
 19 10  1  0  0  0
  6  1  1  0  0  0
 29 20  1  0  0  0
 19 13  1  0  0  0
 29 24  1  0  0  0
  5  8  1  0  0  0
M  END
> <minimizedAffinity>
6.56264

> <CNNscore>
0.4180583358

> <CNNaffinity>
7.9999299049

> <CNN_VS>
3.3444373608

> <CNNaffinity_variance>
1.7784297466

$$$$
[H]c1c(Cl)c([H])c2c(c1[H])c(C1=C(c3c([H])n(C([H])([H])[H])c4c([H])c(C(F)(F)F)c([H])c([H])c34)C(=O)N([H])C1=O)c([H])n2C([H])([H])[H]


 33 37  0  0  0  0  0  0  0  0999 V2000
    8.3999   45.5307  132.2590 C   0  0  0  0  0  0  0  0  0  0  0  0
    8.9750   44.4532  131.7923 C   0  0  0  0  0  0  0  0  0  0  0  0
    8.7951   43.3661  132.7939 C   0  0  0  0  0  0  0  0  0  0  0  0
    9.2238   42.2000  132.6780 O   0  0  0  0  0  0  0  0  0  0  0  0
    8.0788   43.8638  133.8740 N   0  0  0  0  0  0  0  0  0  0  0  0
    7.8039   45.1981  133.5963 C   0  0  0  0  0  0  0  0  0  0  0  0
    7.1649   46.0592  134.2846 O   0  0  0  0  0  0  0  0  0  0  0  0
    7.7765   43.3867  134.7771 H   0  0  0  0  0  0  0  0  0  0  0  0
    6.8672   49.6650  129.7827 C   0  0  0  0  0  0  0  0  0  0  0  0
    7.5925   48.7906  130.7100 N   0  0  0  0  0  0  0  0  0  0  0  0
    7.4807   47.4363  130.7526 C   0  0  0  0  0  0  0  0  0  0  0  0
    8.2410   46.9033  131.7424 C   0  0  0  0  0  0  0  0  0  0  0  0
    8.8599   48.0323  132.3394 C   0  0  0  0  0  0  0  0  0  0  0  0
    9.7242   48.2494  133.3768 C   0  0  0  0  0  0  0  0  0  0  0  0
   10.1504   49.5301  133.7583 C   0  0  0  0  0  0  0  0  0  0  0  0
    9.7094   50.6390  133.0851 C   0  0  0  0  0  0  0  0  0  0  0  0
   10.2505   52.2411  133.5723 Cl  0  0  0  0  0  0  0  0  0  0  0  0
    8.8407   50.4398  132.0312 C   0  0  0  0  0  0  0  0  0  0  0  0
    8.4298   49.1651  131.6674 C   0  0  0  0  0  0  0  0  0  0  0  0
    9.6482   44.1491  130.5124 C   0  0  0  0  0  0  0  0  0  0  0  0
    9.0771   43.6602  129.3812 C   0  0  0  0  0  0  0  0  0  0  0  0
   10.0460   43.4381  128.4461 N   0  0  0  0  0  0  0  0  0  0  0  0
    9.8566   42.9037  127.1249 C   0  0  0  0  0  0  0  0  0  0  0  0
   11.2598   43.7731  128.9326 C   0  0  0  0  0  0  0  0  0  0  0  0
   12.5172   43.6965  128.3732 C   0  0  0  0  0  0  0  0  0  0  0  0
   13.6190   44.0706  129.0967 C   0  0  0  0  0  0  0  0  0  0  0  0
   13.3775   44.5201  130.3870 C   0  0  0  0  0  0  0  0  0  0  0  0
   12.1225   44.5947  130.9303 C   0  0  0  0  0  0  0  0  0  0  0  0
   11.0048   44.2183  130.2294 C   0  0  0  0  0  0  0  0  0  0  0  0
   15.0317   43.9781  128.5746 C   0  0  0  0  0  0  0  0  0  0  0  0
   15.5852   45.2516  128.5172 F   0  0  0  0  0  0  0  0  0  0  0  0
   15.8237   43.1685  129.3206 F   0  0  0  0  0  0  0  0  0  0  0  0
   15.0602   43.5053  127.2490 F   0  0  0  0  0  0  0  0  0  0  0  0
  9 10  1  0  0  0
 10 11  1  0  0  0
 11 12  2  0  0  0
 12  1  1  0  0  0
  1  2  2  0  0  0
  2  3  1  0  0  0
  3  4  2  0  0  0
  3  5  1  0  0  0
  5  6  1  0  0  0
  6  7  2  0  0  0
  2 20  1  0  0  0
 20 21  2  0  0  0
 21 22  1  0  0  0
 22 23  1  0  0  0
 22 24  1  0  0  0
 24 25  2  0  0  0
 25 26  1  0  0  0
 26 27  2  0  0  0
 27 28  1  0  0  0
 28 29  2  0  0  0
 26 30  1  0  0  0
 30 31  1  0  0  0
 30 32  1  0  0  0
 30 33  1  0  0  0
 12 13  1  0  0  0
 13 14  2  0  0  0
 14 15  1  0  0  0
 15 16  2  0  0  0
 16 17  1  0  0  0
 16 18  1  0  0  0
 18 19  2  0  0  0
 19 10  1  0  0  0
  6  1  1  0  0  0
 29 20  1  0  0  0
 19 13  1  0  0  0
 29 24  1  0  0  0
  5  8  1  0  0  0
M  END
> <minimizedAffinity>
8.60702

> <CNNscore>
0.4090235829

> <CNNaffinity>
7.4224877357

> <CNN_VS>
3.0359725952

> <CNNaffinity_variance>
0.7607156038

$$$$
[H]c1c(Cl)c([H])c2c(c1[H])c(C1=C(c3c([H])n(C([H])([H])[H])c4c([H])c(C(F)(F)F)c([H])c([H])c34)C(=O)N([H])C1=O)c([H])n2C([H])([H])[H]


 33 37  0  0  0  0  0  0  0  0999 V2000
    7.4094   48.5183  130.3564 C   0  0  0  0  0  0  0  0  0  0  0  0
    7.2263   47.3955  129.7119 C   0  0  0  0  0  0  0  0  0  0  0  0
    6.1400   47.6095  128.7161 C   0  0  0  0  0  0  0  0  0  0  0  0
    5.7002   46.7450  127.9310 O   0  0  0  0  0  0  0  0  0  0  0  0
    5.6972   48.9220  128.8086 N   0  0  0  0  0  0  0  0  0  0  0  0
    6.4498   49.5332  129.8052 C   0  0  0  0  0  0  0  0  0  0  0  0
    6.4105   50.7310  130.2378 O   0  0  0  0  0  0  0  0  0  0  0  0
    4.9295   49.4282  128.2710 H   0  0  0  0  0  0  0  0  0  0  0  0
   10.3355   51.1511  133.5313 C   0  0  0  0  0  0  0  0  0  0  0  0
    9.6101   50.0377  132.9111 N   0  0  0  0  0  0  0  0  0  0  0  0
    8.9282   50.1096  131.7371 C   0  0  0  0  0  0  0  0  0  0  0  0
    8.3229   48.9323  131.4382 C   0  0  0  0  0  0  0  0  0  0  0  0
    8.6738   48.0862  132.5221 C   0  0  0  0  0  0  0  0  0  0  0  0
    8.4134   46.7947  132.8893 C   0  0  0  0  0  0  0  0  0  0  0  0
    8.8984   46.2276  134.0770 C   0  0  0  0  0  0  0  0  0  0  0  0
    9.6753   46.9637  134.9325 C   0  0  0  0  0  0  0  0  0  0  0  0
   10.2785   46.2422  136.4199 Cl  0  0  0  0  0  0  0  0  0  0  0  0
    9.9539   48.2678  134.5764 C   0  0  0  0  0  0  0  0  0  0  0  0
    9.4657   48.8125  133.3969 C   0  0  0  0  0  0  0  0  0  0  0  0
    7.9142   46.0884  129.7576 C   0  0  0  0  0  0  0  0  0  0  0  0
    7.3416   44.8646  129.8961 C   0  0  0  0  0  0  0  0  0  0  0  0
    8.3189   43.9155  129.9760 N   0  0  0  0  0  0  0  0  0  0  0  0
    8.1289   42.5010  130.1492 C   0  0  0  0  0  0  0  0  0  0  0  0
    9.5401   44.4844  129.8907 C   0  0  0  0  0  0  0  0  0  0  0  0
   10.8045   43.9388  129.9506 C   0  0  0  0  0  0  0  0  0  0  0  0
   11.9093   44.7457  129.8747 C   0  0  0  0  0  0  0  0  0  0  0  0
   11.6639   46.1039  129.7337 C   0  0  0  0  0  0  0  0  0  0  0  0
   10.4024   46.6336  129.6721 C   0  0  0  0  0  0  0  0  0  0  0  0
    9.2807   45.8479  129.7541 C   0  0  0  0  0  0  0  0  0  0  0  0
   13.3253   44.2341  129.9742 C   0  0  0  0  0  0  0  0  0  0  0  0
   13.3296   43.0211  130.6525 F   0  0  0  0  0  0  0  0  0  0  0  0
   13.9243   44.0848  128.7667 F   0  0  0  0  0  0  0  0  0  0  0  0
   14.1287   45.0912  130.7499 F   0  0  0  0  0  0  0  0  0  0  0  0
  9 10  1  0  0  0
 10 11  1  0  0  0
 11 12  2  0  0  0
 12  1  1  0  0  0
  1  2  2  0  0  0
  2  3  1  0  0  0
  3  4  2  0  0  0
  3  5  1  0  0  0
  5  6  1  0  0  0
  6  7  2  0  0  0
  2 20  1  0  0  0
 20 21  2  0  0  0
 21 22  1  0  0  0
 22 23  1  0  0  0
 22 24  1  0  0  0
 24 25  2  0  0  0
 25 26  1  0  0  0
 26 27  2  0  0  0
 27 28  1  0  0  0
 28 29  2  0  0  0
 26 30  1  0  0  0
 30 31  1  0  0  0
 30 32  1  0  0  0
 30 33  1  0  0  0
 12 13  1  0  0  0
 13 14  2  0  0  0
 14 15  1  0  0  0
 15 16  2  0  0  0
 16 17  1  0  0  0
 16 18  1  0  0  0
 18 19  2  0  0  0
 19 10  1  0  0  0
  6  1  1  0  0  0
 29 20  1  0  0  0
 19 13  1  0  0  0
 29 24  1  0  0  0
  5  8  1  0  0  0
M  END
> <minimizedAffinity>
2.20394

> <CNNscore>
0.4057153463

> <CNNaffinity>
7.9249930382

> <CNN_VS>
3.2152912617

> <CNNaffinity_variance>
0.9896470904

$$$$
[H]c1c(Cl)c([H])c2c(c1[H])c(C1=C(c3c([H])n(C([H])([H])[H])c4c([H])c(C(F)(F)F)c([H])c([H])c34)C(=O)N([H])C1=O)c([H])n2C([H])([H])[H]


 33 37  0  0  0  0  0  0  0  0999 V2000
    9.3805   48.5665  131.9022 C   0  0  0  0  0  0  0  0  0  0  0  0
   10.1405   48.1003  132.8585 C   0  0  0  0  0  0  0  0  0  0  0  0
   10.6595   49.2580  133.6382 C   0  0  0  0  0  0  0  0  0  0  0  0
   11.4230   49.1812  134.6222 O   0  0  0  0  0  0  0  0  0  0  0  0
   10.1592   50.4308  133.0889 N   0  0  0  0  0  0  0  0  0  0  0  0
    9.3581   50.0637  132.0135 C   0  0  0  0  0  0  0  0  0  0  0  0
    8.6830   50.7909  131.2141 O   0  0  0  0  0  0  0  0  0  0  0  0
   10.3232   51.4455  133.3682 H   0  0  0  0  0  0  0  0  0  0  0  0
    6.0319   47.5517  128.2511 C   0  0  0  0  0  0  0  0  0  0  0  0
    7.1712   47.4232  129.1653 N   0  0  0  0  0  0  0  0  0  0  0  0
    7.4608   48.2860  130.1754 C   0  0  0  0  0  0  0  0  0  0  0  0
    8.5993   47.9318  130.8236 C   0  0  0  0  0  0  0  0  0  0  0  0
    9.0242   46.7594  130.1463 C   0  0  0  0  0  0  0  0  0  0  0  0
   10.0757   45.8904  130.2440 C   0  0  0  0  0  0  0  0  0  0  0  0
   10.2433   44.7969  129.3816 C   0  0  0  0  0  0  0  0  0  0  0  0
    9.3336   44.5496  128.3873 C   0  0  0  0  0  0  0  0  0  0  0  0
    9.5538   43.1749  127.3111 Cl  0  0  0  0  0  0  0  0  0  0  0  0
    8.2622   45.4125  128.2763 C   0  0  0  0  0  0  0  0  0  0  0  0
    8.1121   46.4894  129.1387 C   0  0  0  0  0  0  0  0  0  0  0  0
   10.4755   46.7291  133.2961 C   0  0  0  0  0  0  0  0  0  0  0  0
   11.6996   46.2560  133.6460 C   0  0  0  0  0  0  0  0  0  0  0  0
   11.6086   44.9199  133.9091 N   0  0  0  0  0  0  0  0  0  0  0  0
   12.6844   44.0455  134.2902 C   0  0  0  0  0  0  0  0  0  0  0  0
   10.3400   44.4895  133.7430 C   0  0  0  0  0  0  0  0  0  0  0  0
    9.7812   43.2353  133.8647 C   0  0  0  0  0  0  0  0  0  0  0  0
    8.4501   43.0438  133.6023 C   0  0  0  0  0  0  0  0  0  0  0  0
    7.7351   44.1707  133.2231 C   0  0  0  0  0  0  0  0  0  0  0  0
    8.3013   45.4125  133.1090 C   0  0  0  0  0  0  0  0  0  0  0  0
    9.6331   45.6284  133.3580 C   0  0  0  0  0  0  0  0  0  0  0  0
    7.7707   41.6983  133.6708 C   0  0  0  0  0  0  0  0  0  0  0  0
    8.6490   40.7665  134.2109 F   0  0  0  0  0  0  0  0  0  0  0  0
    6.6229   41.7168  134.3928 F   0  0  0  0  0  0  0  0  0  0  0  0
    7.4631   41.2113  132.3863 F   0  0  0  0  0  0  0  0  0  0  0  0
  9 10  1  0  0  0
 10 11  1  0  0  0
 11 12  2  0  0  0
 12  1  1  0  0  0
  1  2  2  0  0  0
  2  3  1  0  0  0
  3  4  2  0  0  0
  3  5  1  0  0  0
  5  6  1  0  0  0
  6  7  2  0  0  0
  2 20  1  0  0  0
 20 21  2  0  0  0
 21 22  1  0  0  0
 22 23  1  0  0  0
 22 24  1  0  0  0
 24 25  2  0  0  0
 25 26  1  0  0  0
 26 27  2  0  0  0
 27 28  1  0  0  0
 28 29  2  0  0  0
 26 30  1  0  0  0
 30 31  1  0  0  0
 30 32  1  0  0  0
 30 33  1  0  0  0
 12 13  1  0  0  0
 13 14  2  0  0  0
 14 15  1  0  0  0
 15 16  2  0  0  0
 16 17  1  0  0  0
 16 18  1  0  0  0
 18 19  2  0  0  0
 19 10  1  0  0  0
  6  1  1  0  0  0
 29 20  1  0  0  0
 19 13  1  0  0  0
 29 24  1  0  0  0
  5  8  1  0  0  0
M  END
> <minimizedAffinity>
4.94884

> <CNNscore>
0.3970361948

> <CNNaffinity>
7.9782819748

> <CNN_VS>
3.1676666737

> <CNNaffinity_variance>
1.2490515709

$$$$
[H]c1c(Cl)c([H])c2c(c1[H])c(C1=C(c3c([H])n(C([H])([H])[H])c4c([H])c(C(F)(F)F)c([H])c([H])c34)C(=O)N([H])C1=O)c([H])n2C([H])([H])[H]


 33 37  0  0  0  0  0  0  0  0999 V2000
    9.5715   44.1424  129.3496 C   0  0  0  0  0  0  0  0  0  0  0  0
    9.5286   45.3149  128.7726 C   0  0  0  0  0  0  0  0  0  0  0  0
   10.1080   45.1766  127.4078 C   0  0  0  0  0  0  0  0  0  0  0  0
   10.2309   46.1012  126.5789 O   0  0  0  0  0  0  0  0  0  0  0  0
   10.4906   43.8563  127.2134 N   0  0  0  0  0  0  0  0  0  0  0  0
   10.1790   43.1690  128.3811 C   0  0  0  0  0  0  0  0  0  0  0  0
   10.3359   41.9378  128.6691 O   0  0  0  0  0  0  0  0  0  0  0  0
   10.9512   43.3905  126.3735 H   0  0  0  0  0  0  0  0  0  0  0  0
    7.1908   41.8399  133.1711 C   0  0  0  0  0  0  0  0  0  0  0  0
    8.1762   42.6241  132.4198 N   0  0  0  0  0  0  0  0  0  0  0  0
    8.0721   42.9515  131.1043 C   0  0  0  0  0  0  0  0  0  0  0  0
    9.1563   43.6459  130.6752 C   0  0  0  0  0  0  0  0  0  0  0  0
    9.9751   43.7433  131.8302 C   0  0  0  0  0  0  0  0  0  0  0  0
   11.1955   44.2823  132.1312 C   0  0  0  0  0  0  0  0  0  0  0  0
   11.7752   44.1917  133.4053 C   0  0  0  0  0  0  0  0  0  0  0  0
   11.1212   43.5481  134.4228 C   0  0  0  0  0  0  0  0  0  0  0  0
   11.8580   43.4404  136.0172 Cl  0  0  0  0  0  0  0  0  0  0  0  0
    9.8855   43.0023  134.1399 C   0  0  0  0  0  0  0  0  0  0  0  0
    9.3268   43.1018  132.8734 C   0  0  0  0  0  0  0  0  0  0  0  0
    8.9778   46.6204  129.1922 C   0  0  0  0  0  0  0  0  0  0  0  0
    8.1070   47.4028  128.5034 C   0  0  0  0  0  0  0  0  0  0  0  0
    7.9053   48.5654  129.1891 N   0  0  0  0  0  0  0  0  0  0  0  0
    7.0715   49.6652  128.7863 C   0  0  0  0  0  0  0  0  0  0  0  0
    8.6266   48.5739  130.3300 C   0  0  0  0  0  0  0  0  0  0  0  0
    8.7638   49.5306  131.3129 C   0  0  0  0  0  0  0  0  0  0  0  0
    9.6009   49.3138  132.3758 C   0  0  0  0  0  0  0  0  0  0  0  0
   10.2708   48.0988  132.3864 C   0  0  0  0  0  0  0  0  0  0  0  0
   10.1233   47.1548  131.4053 C   0  0  0  0  0  0  0  0  0  0  0  0
    9.2980   47.3515  130.3271 C   0  0  0  0  0  0  0  0  0  0  0  0
    9.8397   50.3246  133.4702 C   0  0  0  0  0  0  0  0  0  0  0  0
   11.0803   50.0894  134.0509 F   0  0  0  0  0  0  0  0  0  0  0  0
    9.7745   51.6073  133.0347 F   0  0  0  0  0  0  0  0  0  0  0  0
    8.9105   50.1781  134.5175 F   0  0  0  0  0  0  0  0  0  0  0  0
  9 10  1  0  0  0
 10 11  1  0  0  0
 11 12  2  0  0  0
 12  1  1  0  0  0
  1  2  2  0  0  0
  2  3  1  0  0  0
  3  4  2  0  0  0
  3  5  1  0  0  0
  5  6  1  0  0  0
  6  7  2  0  0  0
  2 20  1  0  0  0
 20 21  2  0  0  0
 21 22  1  0  0  0
 22 23  1  0  0  0
 22 24  1  0  0  0
 24 25  2  0  0  0
 25 26  1  0  0  0
 26 27  2  0  0  0
 27 28  1  0  0  0
 28 29  2  0  0  0
 26 30  1  0  0  0
 30 31  1  0  0  0
 30 32  1  0  0  0
 30 33  1  0  0  0
 12 13  1  0  0  0
 13 14  2  0  0  0
 14 15  1  0  0  0
 15 16  2  0  0  0
 16 17  1  0  0  0
 16 18  1  0  0  0
 18 19  2  0  0  0
 19 10  1  0  0  0
  6  1  1  0  0  0
 29 20  1  0  0  0
 19 13  1  0  0  0
 29 24  1  0  0  0
  5  8  1  0  0  0
M  END
> <minimizedAffinity>
3.62657

> <CNNscore>
0.3964093924

> <CNNaffinity>
7.7164177895

> <CNN_VS>
3.0588605404

> <CNNaffinity_variance>
0.9395579100

$$$$
[H]/C(C(=O)N([H])c1c(OC([H])([H])[H])c([H])c2nc([H])nc(N([H])c3c([H])c([H])c(F)c(Cl)c3[H])c2c1[H])=C(/[H])C([H])([H])N1C([H])([H])C([H])([H])OC([H])([H])C1([H])[H]


 35 38  0  0  0  0  0  0  0  0999 V2000
    9.8000   45.1119  127.7205 C   0  0  0  0  0  0  0  0  0  0  0  0
    9.5808   43.8230  128.1329 C   0  0  0  0  0  0  0  0  0  0  0  0
    9.8955   43.4087  129.4789 C   0  0  0  0  0  0  0  0  0  0  0  0
    9.8750   42.1413  129.7438 N   0  0  0  0  0  0  0  0  0  0  0  0
   10.3721   41.6028  130.9371 C   0  0  0  0  0  0  0  0  0  0  0  0
   10.8655   42.5413  131.7826 N   0  0  0  0  0  0  0  0  0  0  0  0
   10.9380   43.8676  131.6253 C   0  0  0  0  0  0  0  0  0  0  0  0
   10.4138   44.3044  130.3917 C   0  0  0  0  0  0  0  0  0  0  0  0
   10.6327   45.6675  130.0072 C   0  0  0  0  0  0  0  0  0  0  0  0
   10.3306   45.9384  128.8013 C   0  0  0  0  0  0  0  0  0  0  0  0
   10.0105   47.3219  128.3481 N   0  0  0  0  0  0  0  0  0  0  0  0
    8.9981   48.0207  129.0333 C   0  0  0  0  0  0  0  0  0  0  0  0
    8.5345   47.4789  130.1059 O   0  0  0  0  0  0  0  0  0  0  0  0
   10.5425   47.7014  127.5948 H   0  0  0  0  0  0  0  0  0  0  0  0
    8.4270   49.2333  128.6182 C   0  0  0  0  0  0  0  0  0  0  0  0
    7.5398   50.0699  129.1253 C   0  0  0  0  0  0  0  0  0  0  0  0
    7.2099   51.2928  128.4003 C   0  0  0  0  0  0  0  0  0  0  0  0
    6.9200   52.3821  127.7544 N   0  0  0  0  0  0  0  0  0  0  0  0
    7.5104   52.5593  126.4697 C   0  0  0  0  0  0  0  0  0  0  0  0
    6.9304   53.7001  125.6945 C   0  0  0  0  0  0  0  0  0  0  0  0
    6.7155   54.8487  126.4769 O   0  0  0  0  0  0  0  0  0  0  0  0
    7.5093   54.7689  127.6319 C   0  0  0  0  0  0  0  0  0  0  0  0
    7.0399   53.6479  128.5039 C   0  0  0  0  0  0  0  0  0  0  0  0
   10.2348   45.6142  125.3008 C   0  0  0  0  0  0  0  0  0  0  0  0
    9.6703   45.6821  126.6080 O   0  0  0  0  0  0  0  0  0  0  0  0
   11.4506   44.7379  132.5988 N   0  0  0  0  0  0  0  0  0  0  0  0
   12.0958   45.5129  132.2894 H   0  0  0  0  0  0  0  0  0  0  0  0
   11.1525   44.6765  133.9684 C   0  0  0  0  0  0  0  0  0  0  0  0
   10.2019   45.7040  134.4033 C   0  0  0  0  0  0  0  0  0  0  0  0
    9.8513   45.7449  135.6365 C   0  0  0  0  0  0  0  0  0  0  0  0
   10.3124   44.8648  136.6223 C   0  0  0  0  0  0  0  0  0  0  0  0
    9.9178   45.0118  137.9316 F   0  0  0  0  0  0  0  0  0  0  0  0
   11.1696   43.9202  136.2913 C   0  0  0  0  0  0  0  0  0  0  0  0
   11.8450   42.7907  137.4645 Cl  0  0  0  0  0  0  0  0  0  0  0  0
   11.6346   43.8064  134.8756 C   0  0  0  0  0  0  0  0  0  0  0  0
 24 25  1  0  0  0
 25  1  1  0  0  0
  1  2  2  0  0  0
  2  3  1  0  0  0
  3  4  2  0  0  0
  4  5  1  0  0  0
  5  6  2  0  0  0
  6  7  1  0  0  0
  7 26  1  0  0  0
 26 28  1  0  0  0
 28 29  2  0  0  0
 29 30  1  0  0  0
 30 31  2  0  0  0
 31 32  1  0  0  0
 31 33  1  0  0  0
 33 34  1  0  0  0
 33 35  2  0  0  0
  7  8  2  0  0  0
  8  9  1  0  0  0
  9 10  2  0  0  0
 10 11  1  0  0  0
 11 12  1  0  0  0
 12 13  2  0  0  0
 12 15  1  0  0  0
 15 16  2  0  0  0
 16 17  1  0  0  0
 17 18  1  0  0  0
 18 19  1  0  0  0
 19 20  1  0  0  0
 20 21  1  0  0  0
 21 22  1  0  0  0
 22 23  1  0  0  0
 10  1  1  0  0  0
 23 18  1  0  0  0
  8  3  1  0  0  0
 35 28  1  0  0  0
 26 27  1  0  0  0
 11 14  1  0  0  0
M  END
> <minimizedAffinity>
15.13849

> <CNNscore>
0.4028822184

> <CNNaffinity>
7.3963570595

> <CNN_VS>
2.9798607826

> <CNNaffinity_variance>
1.6433597803

$$$$
[H]/C(C(=O)N([H])c1c(OC([H])([H])[H])c([H])c2nc([H])nc(N([H])c3c([H])c([H])c(F)c(Cl)c3[H])c2c1[H])=C(/[H])C([H])([H])N1C([H])([H])C([H])([H])OC([H])([H])C1([H])[H]


 35 38  0  0  0  0  0  0  0  0999 V2000
   10.5224   43.6625  130.6500 C   0  0  0  0  0  0  0  0  0  0  0  0
    9.7895   44.0805  129.5695 C   0  0  0  0  0  0  0  0  0  0  0  0
    9.0627   45.3267  129.6005 C   0  0  0  0  0  0  0  0  0  0  0  0
    8.2196   45.5610  128.6460 N   0  0  0  0  0  0  0  0  0  0  0  0
    7.3021   46.6184  128.6804 C   0  0  0  0  0  0  0  0  0  0  0  0
    7.3944   47.3700  129.8054 N   0  0  0  0  0  0  0  0  0  0  0  0
    8.2184   47.2321  130.8499 C   0  0  0  0  0  0  0  0  0  0  0  0
    9.0975   46.1383  130.7160 C   0  0  0  0  0  0  0  0  0  0  0  0
    9.8737   45.7494  131.8562 C   0  0  0  0  0  0  0  0  0  0  0  0
   10.4756   44.6346  131.7388 C   0  0  0  0  0  0  0  0  0  0  0  0
   11.6795   44.2865  132.5459 N   0  0  0  0  0  0  0  0  0  0  0  0
   11.4775   43.6738  133.7975 C   0  0  0  0  0  0  0  0  0  0  0  0
   10.2764   43.3079  134.0843 O   0  0  0  0  0  0  0  0  0  0  0  0
   12.5761   44.4811  132.1549 H   0  0  0  0  0  0  0  0  0  0  0  0
   12.4687   43.4708  134.7699 C   0  0  0  0  0  0  0  0  0  0  0  0
   13.7887   43.5087  134.7802 C   0  0  0  0  0  0  0  0  0  0  0  0
   14.5039   43.2727  136.0304 C   0  0  0  0  0  0  0  0  0  0  0  0
   15.1377   43.0642  137.1450 N   0  0  0  0  0  0  0  0  0  0  0  0
   16.5571   42.9552  137.0815 C   0  0  0  0  0  0  0  0  0  0  0  0
   17.2213   42.9738  138.4221 C   0  0  0  0  0  0  0  0  0  0  0  0
   16.5504   42.1969  139.3833 O   0  0  0  0  0  0  0  0  0  0  0  0
   15.7247   41.2712  138.7261 C   0  0  0  0  0  0  0  0  0  0  0  0
   14.6227   41.9827  138.0072 C   0  0  0  0  0  0  0  0  0  0  0  0
   10.9899   41.3710  131.5593 C   0  0  0  0  0  0  0  0  0  0  0  0
   11.1719   42.6117  130.8814 O   0  0  0  0  0  0  0  0  0  0  0  0
    8.2310   48.1036  131.9491 N   0  0  0  0  0  0  0  0  0  0  0  0
    7.5122   48.8748  131.9864 H   0  0  0  0  0  0  0  0  0  0  0  0
    9.1193   48.0186  133.0318 C   0  0  0  0  0  0  0  0  0  0  0  0
   10.2316   48.9695  132.9475 C   0  0  0  0  0  0  0  0  0  0  0  0
   11.1078   48.9862  133.8842 C   0  0  0  0  0  0  0  0  0  0  0  0
   11.0848   48.1516  135.0076 C   0  0  0  0  0  0  0  0  0  0  0  0
   12.0933   48.2067  135.9409 F   0  0  0  0  0  0  0  0  0  0  0  0
   10.1093   47.2752  135.1379 C   0  0  0  0  0  0  0  0  0  0  0  0
   10.0130   46.1486  136.4905 Cl  0  0  0  0  0  0  0  0  0  0  0  0
    9.0498   47.1861  134.0876 C   0  0  0  0  0  0  0  0  0  0  0  0
 24 25  1  0  0  0
 25  1  1  0  0  0
  1  2  2  0  0  0
  2  3  1  0  0  0
  3  4  2  0  0  0
  4  5  1  0  0  0
  5  6  2  0  0  0
  6  7  1  0  0  0
  7 26  1  0  0  0
 26 28  1  0  0  0
 28 29  2  0  0  0
 29 30  1  0  0  0
 30 31  2  0  0  0
 31 32  1  0  0  0
 31 33  1  0  0  0
 33 34  1  0  0  0
 33 35  2  0  0  0
  7  8  2  0  0  0
  8  9  1  0  0  0
  9 10  2  0  0  0
 10 11  1  0  0  0
 11 12  1  0  0  0
 12 13  2  0  0  0
 12 15  1  0  0  0
 15 16  2  0  0  0
 16 17  1  0  0  0
 17 18  1  0  0  0
 18 19  1  0  0  0
 19 20  1  0  0  0
 20 21  1  0  0  0
 21 22  1  0  0  0
 22 23  1  0  0  0
 10  1  1  0  0  0
 23 18  1  0  0  0
  8  3  1  0  0  0
 35 28  1  0  0  0
 26 27  1  0  0  0
 11 14  1  0  0  0
M  END
> <minimizedAffinity>
17.56634

> <CNNscore>
0.2105609030

> <CNNaffinity>
7.0783476830

> <CNN_VS>
1.4904233217

> <CNNaffinity_variance>
0.5473987460

$$$$
[H]/C(C(=O)N([H])c1c(OC([H])([H])[H])c([H])c2nc([H])nc(N([H])c3c([H])c([H])c(F)c(Cl)c3[H])c2c1[H])=C(/[H])C([H])([H])N1C([H])([H])C([H])([H])OC([H])([H])C1([H])[H]


 35 38  0  0  0  0  0  0  0  0999 V2000
    9.3291   45.2294  128.4915 C   0  0  0  0  0  0  0  0  0  0  0  0
    8.9394   43.9241  128.6452 C   0  0  0  0  0  0  0  0  0  0  0  0
    8.5280   43.4169  129.9319 C   0  0  0  0  0  0  0  0  0  0  0  0
    8.3842   42.1365  130.0614 N   0  0  0  0  0  0  0  0  0  0  0  0
    8.2085   41.5096  131.3013 C   0  0  0  0  0  0  0  0  0  0  0  0
    8.1964   42.3783  132.3427 N   0  0  0  0  0  0  0  0  0  0  0  0
    8.3298   43.7091  132.3360 C   0  0  0  0  0  0  0  0  0  0  0  0
    8.5034   44.2378  131.0408 C   0  0  0  0  0  0  0  0  0  0  0  0
    8.8783   45.6154  130.9161 C   0  0  0  0  0  0  0  0  0  0  0  0
    9.2301   45.9703  129.7460 C   0  0  0  0  0  0  0  0  0  0  0  0
    9.1758   47.3885  129.2899 N   0  0  0  0  0  0  0  0  0  0  0  0
    7.9421   48.0613  129.3796 C   0  0  0  0  0  0  0  0  0  0  0  0
    6.9890   47.4582  130.0014 O   0  0  0  0  0  0  0  0  0  0  0  0
   10.0201   47.8064  128.9627 H   0  0  0  0  0  0  0  0  0  0  0  0
    7.6579   49.3120  128.8104 C   0  0  0  0  0  0  0  0  0  0  0  0
    7.2093   50.4665  129.2685 C   0  0  0  0  0  0  0  0  0  0  0  0
    7.0715   51.5966  128.3553 C   0  0  0  0  0  0  0  0  0  0  0  0
    6.9500   52.6003  127.5395 N   0  0  0  0  0  0  0  0  0  0  0  0
    7.6056   52.5028  126.2780 C   0  0  0  0  0  0  0  0  0  0  0  0
    7.2082   53.5728  125.3106 C   0  0  0  0  0  0  0  0  0  0  0  0
    7.1160   54.8461  125.9004 O   0  0  0  0  0  0  0  0  0  0  0  0
    7.8494   54.8486  127.0974 C   0  0  0  0  0  0  0  0  0  0  0  0
    7.2060   53.9422  128.0982 C   0  0  0  0  0  0  0  0  0  0  0  0
   11.0431   46.2714  126.9839 C   0  0  0  0  0  0  0  0  0  0  0  0
    9.7799   45.8720  127.5099 O   0  0  0  0  0  0  0  0  0  0  0  0
    8.2696   44.5010  133.4924 N   0  0  0  0  0  0  0  0  0  0  0  0
    7.4679   44.3520  134.1616 H   0  0  0  0  0  0  0  0  0  0  0  0
    9.2153   45.4738  133.8502 C   0  0  0  0  0  0  0  0  0  0  0  0
    8.6203   46.7772  134.1594 C   0  0  0  0  0  0  0  0  0  0  0  0
    9.3882   47.7456  134.5027 C   0  0  0  0  0  0  0  0  0  0  0  0
   10.7807   47.6545  134.6107 C   0  0  0  0  0  0  0  0  0  0  0  0
   11.5307   48.7590  134.9410 F   0  0  0  0  0  0  0  0  0  0  0  0
   11.3728   46.5078  134.3442 C   0  0  0  0  0  0  0  0  0  0  0  0
   13.1225   46.3001  134.4063 Cl  0  0  0  0  0  0  0  0  0  0  0  0
   10.5514   45.3297  133.9309 C   0  0  0  0  0  0  0  0  0  0  0  0
 24 25  1  0  0  0
 25  1  1  0  0  0
  1  2  2  0  0  0
  2  3  1  0  0  0
  3  4  2  0  0  0
  4  5  1  0  0  0
  5  6  2  0  0  0
  6  7  1  0  0  0
  7 26  1  0  0  0
 26 28  1  0  0  0
 28 29  2  0  0  0
 29 30  1  0  0  0
 30 31  2  0  0  0
 31 32  1  0  0  0
 31 33  1  0  0  0
 33 34  1  0  0  0
 33 35  2  0  0  0
  7  8  2  0  0  0
  8  9  1  0  0  0
  9 10  2  0  0  0
 10 11  1  0  0  0
 11 12  1  0  0  0
 12 13  2  0  0  0
 12 15  1  0  0  0
 15 16  2  0  0  0
 16 17  1  0  0  0
 17 18  1  0  0  0
 18 19  1  0  0  0
 19 20  1  0  0  0
 20 21  1  0  0  0
 21 22  1  0  0  0
 22 23  1  0  0  0
 10  1  1  0  0  0
 23 18  1  0  0  0
  8  3  1  0  0  0
 35 28  1  0  0  0
 26 27  1  0  0  0
 11 14  1  0  0  0
M  END
> <minimizedAffinity>
7.00950

> <CNNscore>
0.2050697207

> <CNNaffinity>
7.3286490440

> <CNN_VS>
1.5028840303

> <CNNaffinity_variance>
0.5377659798

$$$$
[H]/C(C(=O)N([H])c1c(OC([H])([H])[H])c([H])c2nc([H])nc(N([H])c3c([H])c([H])c(F)c(Cl)c3[H])c2c1[H])=C(/[H])C([H])([H])N1C([H])([H])C([H])([H])OC([H])([H])C1([H])[H]


 35 38  0  0  0  0  0  0  0  0999 V2000
   10.7102   42.3977  131.4667 C   0  0  0  0  0  0  0  0  0  0  0  0
   10.4944   42.7008  130.1472 C   0  0  0  0  0  0  0  0  0  0  0  0
   10.0988   44.0286  129.7439 C   0  0  0  0  0  0  0  0  0  0  0  0
    9.6990   44.1980  128.5239 N   0  0  0  0  0  0  0  0  0  0  0  0
    9.0851   45.3752  128.0783 C   0  0  0  0  0  0  0  0  0  0  0  0
    8.9623   46.3145  129.0487 N   0  0  0  0  0  0  0  0  0  0  0  0
    9.3363   46.2596  130.3317 C   0  0  0  0  0  0  0  0  0  0  0  0
    9.9401   45.0332  130.6764 C   0  0  0  0  0  0  0  0  0  0  0  0
   10.1818   44.7633  132.0629 C   0  0  0  0  0  0  0  0  0  0  0  0
   10.5216   43.5652  132.3234 C   0  0  0  0  0  0  0  0  0  0  0  0
   11.2755   43.1972  133.5556 N   0  0  0  0  0  0  0  0  0  0  0  0
   12.5787   43.7085  133.7065 C   0  0  0  0  0  0  0  0  0  0  0  0
   12.9657   44.5896  132.8505 O   0  0  0  0  0  0  0  0  0  0  0  0
   10.8163   42.6241  134.2304 H   0  0  0  0  0  0  0  0  0  0  0  0
   13.4998   43.3041  134.6849 C   0  0  0  0  0  0  0  0  0  0  0  0
   14.2146   43.9224  135.6072 C   0  0  0  0  0  0  0  0  0  0  0  0
   15.0641   43.1412  136.5005 C   0  0  0  0  0  0  0  0  0  0  0  0
   15.8224   42.4448  137.2927 N   0  0  0  0  0  0  0  0  0  0  0  0
   15.1788   41.5651  138.2106 C   0  0  0  0  0  0  0  0  0  0  0  0
   16.1166   40.6233  138.8977 C   0  0  0  0  0  0  0  0  0  0  0  0
   17.3121   41.2366  139.3123 O   0  0  0  0  0  0  0  0  0  0  0  0
   17.1128   42.6245  139.3813 C   0  0  0  0  0  0  0  0  0  0  0  0
   16.8803   43.1806  138.0123 C   0  0  0  0  0  0  0  0  0  0  0  0
   11.4482   40.0140  131.7317 C   0  0  0  0  0  0  0  0  0  0  0  0
   10.9912   41.3245  132.0573 O   0  0  0  0  0  0  0  0  0  0  0  0
    9.1761   47.3224  131.2331 N   0  0  0  0  0  0  0  0  0  0  0  0
    8.7951   48.2363  130.8690 H   0  0  0  0  0  0  0  0  0  0  0  0
    9.4627   47.2624  132.6053 C   0  0  0  0  0  0  0  0  0  0  0  0
    8.4328   46.5693  133.3847 C   0  0  0  0  0  0  0  0  0  0  0  0
    8.5875   46.4498  134.6524 C   0  0  0  0  0  0  0  0  0  0  0  0
    9.6877   46.9372  135.3672 C   0  0  0  0  0  0  0  0  0  0  0  0
    9.7483   46.8043  136.7347 F   0  0  0  0  0  0  0  0  0  0  0  0
   10.6456   47.5702  134.7205 C   0  0  0  0  0  0  0  0  0  0  0  0
   12.0499   48.2611  135.5322 Cl  0  0  0  0  0  0  0  0  0  0  0  0
   10.5406   47.7581  133.2416 C   0  0  0  0  0  0  0  0  0  0  0  0
 24 25  1  0  0  0
 25  1  1  0  0  0
  1  2  2  0  0  0
  2  3  1  0  0  0
  3  4  2  0  0  0
  4  5  1  0  0  0
  5  6  2  0  0  0
  6  7  1  0  0  0
  7 26  1  0  0  0
 26 28  1  0  0  0
 28 29  2  0  0  0
 29 30  1  0  0  0
 30 31  2  0  0  0
 31 32  1  0  0  0
 31 33  1  0  0  0
 33 34  1  0  0  0
 33 35  2  0  0  0
  7  8  2  0  0  0
  8  9  1  0  0  0
  9 10  2  0  0  0
 10 11  1  0  0  0
 11 12  1  0  0  0
 12 13  2  0  0  0
 12 15  1  0  0  0
 15 16  2  0  0  0
 16 17  1  0  0  0
 17 18  1  0  0  0
 18 19  1  0  0  0
 19 20  1  0  0  0
 20 21  1  0  0  0
 21 22  1  0  0  0
 22 23  1  0  0  0
 10  1  1  0  0  0
 23 18  1  0  0  0
  8  3  1  0  0  0
 35 28  1  0  0  0
 26 27  1  0  0  0
 11 14  1  0  0  0
M  END
> <minimizedAffinity>
14.47576

> <CNNscore>
0.1995937675

> <CNNaffinity>
7.0840506554

> <CNN_VS>
1.4139323235

> <CNNaffinity_variance>
0.5377191305

$$$$
[H]/C(C(=O)N([H])c1c(OC([H])([H])[H])c([H])c2nc([H])nc(N([H])c3c([H])c([H])c(F)c(Cl)c3[H])c2c1[H])=C(/[H])C([H])([H])N1C([H])([H])C([H])([H])OC([H])([H])C1([H])[H]


 35 38  0  0  0  0  0  0  0  0999 V2000
   10.1550   45.5438  128.4436 C   0  0  0  0  0  0  0  0  0  0  0  0
    9.9443   44.2068  128.6611 C   0  0  0  0  0  0  0  0  0  0  0  0
   10.0045   43.6507  129.9913 C   0  0  0  0  0  0  0  0  0  0  0  0
   10.0164   42.3613  130.1096 N   0  0  0  0  0  0  0  0  0  0  0  0
   10.2945   41.7081  131.3167 C   0  0  0  0  0  0  0  0  0  0  0  0
   10.5395   42.5611  132.3421 N   0  0  0  0  0  0  0  0  0  0  0  0
   10.5524   43.8985  132.3456 C   0  0  0  0  0  0  0  0  0  0  0  0
   10.2630   44.4544  131.0828 C   0  0  0  0  0  0  0  0  0  0  0  0
   10.4628   45.8617  130.9003 C   0  0  0  0  0  0  0  0  0  0  0  0
   10.3959   46.2595  129.6936 C   0  0  0  0  0  0  0  0  0  0  0  0
   10.0820   47.6714  129.3328 N   0  0  0  0  0  0  0  0  0  0  0  0
    8.7379   48.0851  129.4043 C   0  0  0  0  0  0  0  0  0  0  0  0
    7.8989   47.2637  129.9336 O   0  0  0  0  0  0  0  0  0  0  0  0
   10.8397   48.2680  129.0789 H   0  0  0  0  0  0  0  0  0  0  0  0
    8.2357   49.2976  128.9077 C   0  0  0  0  0  0  0  0  0  0  0  0
    7.4610   50.2538  129.3866 C   0  0  0  0  0  0  0  0  0  0  0  0
    7.1751   51.4254  128.5646 C   0  0  0  0  0  0  0  0  0  0  0  0
    6.9234   52.4673  127.8305 N   0  0  0  0  0  0  0  0  0  0  0  0
    7.5359   52.5270  126.5452 C   0  0  0  0  0  0  0  0  0  0  0  0
    6.9974   53.6175  125.6736 C   0  0  0  0  0  0  0  0  0  0  0  0
    6.8027   54.8295  126.3596 O   0  0  0  0  0  0  0  0  0  0  0  0
    7.5782   54.8210  127.5298 C   0  0  0  0  0  0  0  0  0  0  0  0
    7.0669   53.7849  128.4797 C   0  0  0  0  0  0  0  0  0  0  0  0
   10.2618   46.0350  125.9851 C   0  0  0  0  0  0  0  0  0  0  0  0
   10.2171   46.2352  127.3959 O   0  0  0  0  0  0  0  0  0  0  0  0
   10.7947   44.6695  133.4922 N   0  0  0  0  0  0  0  0  0  0  0  0
   11.5222   44.3338  134.1783 H   0  0  0  0  0  0  0  0  0  0  0  0
   10.1564   45.8818  133.7950 C   0  0  0  0  0  0  0  0  0  0  0  0
    9.0620   45.7377  134.7594 C   0  0  0  0  0  0  0  0  0  0  0  0
    8.4055   46.7806  135.1153 C   0  0  0  0  0  0  0  0  0  0  0  0
    8.6582   48.0755  134.6478 C   0  0  0  0  0  0  0  0  0  0  0  0
    7.8721   49.1302  135.0493 F   0  0  0  0  0  0  0  0  0  0  0  0
    9.6295   48.2672  133.7782 C   0  0  0  0  0  0  0  0  0  0  0  0
    9.9995   49.8494  133.0941 Cl  0  0  0  0  0  0  0  0  0  0  0  0
   10.4400   47.1037  133.3062 C   0  0  0  0  0  0  0  0  0  0  0  0
 24 25  1  0  0  0
 25  1  1  0  0  0
  1  2  2  0  0  0
  2  3  1  0  0  0
  3  4  2  0  0  0
  4  5  1  0  0  0
  5  6  2  0  0  0
  6  7  1  0  0  0
  7 26  1  0  0  0
 26 28  1  0  0  0
 28 29  2  0  0  0
 29 30  1  0  0  0
 30 31  2  0  0  0
 31 32  1  0  0  0
 31 33  1  0  0  0
 33 34  1  0  0  0
 33 35  2  0  0  0
  7  8  2  0  0  0
  8  9  1  0  0  0
  9 10  2  0  0  0
 10 11  1  0  0  0
 11 12  1  0  0  0
 12 13  2  0  0  0
 12 15  1  0  0  0
 15 16  2  0  0  0
 16 17  1  0  0  0
 17 18  1  0  0  0
 18 19  1  0  0  0
 19 20  1  0  0  0
 20 21  1  0  0  0
 21 22  1  0  0  0
 22 23  1  0  0  0
 10  1  1  0  0  0
 23 18  1  0  0  0
  8  3  1  0  0  0
 35 28  1  0  0  0
 26 27  1  0  0  0
 11 14  1  0  0  0
M  END
> <minimizedAffinity>
6.71317

> <CNNscore>
0.1894912720

> <CNNaffinity>
7.3246397972

> <CNN_VS>
1.3879553080

> <CNNaffinity_variance>
0.2778340280

$$$$
[H]/C(C(=O)N([H])c1c(OC([H])([H])[H])c([H])c2nc([H])nc(N([H])c3c([H])c([H])c(F)c(Cl)c3[H])c2c1[H])=C(/[H])C([H])([H])N1C([H])([H])C([H])([H])OC([H])([H])C1([H])[H]


 35 38  0  0  0  0  0  0  0  0999 V2000
   10.9854   43.1159  131.3514 C   0  0  0  0  0  0  0  0  0  0  0  0
   10.8525   42.7251  130.0442 C   0  0  0  0  0  0  0  0  0  0  0  0
    9.9259   43.3892  129.1595 C   0  0  0  0  0  0  0  0  0  0  0  0
    9.6849   42.8412  128.0113 N   0  0  0  0  0  0  0  0  0  0  0  0
    8.6507   43.2626  127.1664 C   0  0  0  0  0  0  0  0  0  0  0  0
    7.9394   44.3019  127.6693 N   0  0  0  0  0  0  0  0  0  0  0  0
    8.0927   44.9495  128.8295 C   0  0  0  0  0  0  0  0  0  0  0  0
    9.1576   44.4458  129.6037 C   0  0  0  0  0  0  0  0  0  0  0  0
    9.2865   44.9016  130.9563 C   0  0  0  0  0  0  0  0  0  0  0  0
   10.1235   44.2532  131.6619 C   0  0  0  0  0  0  0  0  0  0  0  0
   10.7638   44.8322  132.8772 N   0  0  0  0  0  0  0  0  0  0  0  0
   11.5089   46.0175  132.7264 C   0  0  0  0  0  0  0  0  0  0  0  0
   11.4482   46.6069  131.5829 O   0  0  0  0  0  0  0  0  0  0  0  0
   10.6179   44.3684  133.7479 H   0  0  0  0  0  0  0  0  0  0  0  0
   12.3424   46.5807  133.7047 C   0  0  0  0  0  0  0  0  0  0  0  0
   13.5212   46.2755  134.2159 C   0  0  0  0  0  0  0  0  0  0  0  0
   14.1132   47.1471  135.2258 C   0  0  0  0  0  0  0  0  0  0  0  0
   14.6367   47.9237  136.1261 N   0  0  0  0  0  0  0  0  0  0  0  0
   15.3270   47.3022  137.2068 C   0  0  0  0  0  0  0  0  0  0  0  0
   16.1103   48.2595  138.0487 C   0  0  0  0  0  0  0  0  0  0  0  0
   15.4187   49.4539  138.3181 O   0  0  0  0  0  0  0  0  0  0  0  0
   14.0454   49.2405  138.1201 C   0  0  0  0  0  0  0  0  0  0  0  0
   13.7670   48.9833  136.6731 C   0  0  0  0  0  0  0  0  0  0  0  0
   12.8853   42.9472  132.9819 C   0  0  0  0  0  0  0  0  0  0  0  0
   11.6608   42.6629  132.3096 O   0  0  0  0  0  0  0  0  0  0  0  0
    7.2995   46.0381  129.2215 N   0  0  0  0  0  0  0  0  0  0  0  0
    6.2670   46.0099  129.0070 H   0  0  0  0  0  0  0  0  0  0  0  0
    7.7688   47.1685  129.9075 C   0  0  0  0  0  0  0  0  0  0  0  0
    7.8336   48.3707  129.0714 C   0  0  0  0  0  0  0  0  0  0  0  0
    8.2459   49.4684  129.5916 C   0  0  0  0  0  0  0  0  0  0  0  0
    8.6455   49.6140  130.9250 C   0  0  0  0  0  0  0  0  0  0  0  0
    9.1187   50.8203  131.3860 F   0  0  0  0  0  0  0  0  0  0  0  0
    8.6099   48.5675  131.7251 C   0  0  0  0  0  0  0  0  0  0  0  0
    9.1338   48.6339  133.4072 Cl  0  0  0  0  0  0  0  0  0  0  0  0
    8.1475   47.2481  131.1969 C   0  0  0  0  0  0  0  0  0  0  0  0
 24 25  1  0  0  0
 25  1  1  0  0  0
  1  2  2  0  0  0
  2  3  1  0  0  0
  3  4  2  0  0  0
  4  5  1  0  0  0
  5  6  2  0  0  0
  6  7  1  0  0  0
  7 26  1  0  0  0
 26 28  1  0  0  0
 28 29  2  0  0  0
 29 30  1  0  0  0
 30 31  2  0  0  0
 31 32  1  0  0  0
 31 33  1  0  0  0
 33 34  1  0  0  0
 33 35  2  0  0  0
  7  8  2  0  0  0
  8  9  1  0  0  0
  9 10  2  0  0  0
 10 11  1  0  0  0
 11 12  1  0  0  0
 12 13  2  0  0  0
 12 15  1  0  0  0
 15 16  2  0  0  0
 16 17  1  0  0  0
 17 18  1  0  0  0
 18 19  1  0  0  0
 19 20  1  0  0  0
 20 21  1  0  0  0
 21 22  1  0  0  0
 22 23  1  0  0  0
 10  1  1  0  0  0
 23 18  1  0  0  0
  8  3  1  0  0  0
 35 28  1  0  0  0
 26 27  1  0  0  0
 11 14  1  0  0  0
M  END
> <minimizedAffinity>
14.42427

> <CNNscore>
0.1692063063

> <CNNaffinity>
7.6266813278

> <CNN_VS>
1.2904825211

> <CNNaffinity_variance>
0.5566534996

$$$$
[H]/C(C(=O)N([H])c1c(OC([H])([H])[H])c([H])c2nc([H])nc(N([H])c3c([H])c([H])c(F)c(Cl)c3[H])c2c1[H])=C(/[H])C([H])([H])N1C([H])([H])C([H])([H])OC([H])([H])C1([H])[H]


 35 38  0  0  0  0  0  0  0  0999 V2000
    8.7012   49.7905  130.9473 C   0  0  0  0  0  0  0  0  0  0  0  0
    7.3543   49.7344  130.6982 C   0  0  0  0  0  0  0  0  0  0  0  0
    6.7629   48.5828  130.0608 C   0  0  0  0  0  0  0  0  0  0  0  0
    5.5367   48.6771  129.6552 N   0  0  0  0  0  0  0  0  0  0  0  0
    4.9288   47.7199  128.8334 C   0  0  0  0  0  0  0  0  0  0  0  0
    5.7499   46.6881  128.5167 N   0  0  0  0  0  0  0  0  0  0  0  0
    7.0217   46.4784  128.8738 C   0  0  0  0  0  0  0  0  0  0  0  0
    7.5372   47.5002  129.6968 C   0  0  0  0  0  0  0  0  0  0  0  0
    8.9452   47.5091  129.9640 C   0  0  0  0  0  0  0  0  0  0  0  0
    9.3768   48.5670  130.5239 C   0  0  0  0  0  0  0  0  0  0  0  0
   10.6400   48.5953  131.3149 N   0  0  0  0  0  0  0  0  0  0  0  0
   10.7620   47.6961  132.3915 C   0  0  0  0  0  0  0  0  0  0  0  0
    9.8439   46.8012  132.5151 O   0  0  0  0  0  0  0  0  0  0  0  0
   11.3530   49.2333  131.0335 H   0  0  0  0  0  0  0  0  0  0  0  0
   11.7763   47.7250  133.3607 C   0  0  0  0  0  0  0  0  0  0  0  0
   12.4715   46.8110  134.0128 C   0  0  0  0  0  0  0  0  0  0  0  0
   13.5074   47.2311  134.9512 C   0  0  0  0  0  0  0  0  0  0  0  0
   14.4272   47.6041  135.7893 N   0  0  0  0  0  0  0  0  0  0  0  0
   14.9973   46.6012  136.6260 C   0  0  0  0  0  0  0  0  0  0  0  0
   16.2126   47.0590  137.3691 C   0  0  0  0  0  0  0  0  0  0  0  0
   16.0813   48.3540  137.9011 O   0  0  0  0  0  0  0  0  0  0  0  0
   14.7176   48.6762  137.9861 C   0  0  0  0  0  0  0  0  0  0  0  0
   14.1282   48.7896  136.6159 C   0  0  0  0  0  0  0  0  0  0  0  0
    9.6793   51.3282  132.6723 C   0  0  0  0  0  0  0  0  0  0  0  0
    9.4415   50.6894  131.4203 O   0  0  0  0  0  0  0  0  0  0  0  0
    7.7566   45.3443  128.4977 N   0  0  0  0  0  0  0  0  0  0  0  0
    7.7377   45.0467  127.4859 H   0  0  0  0  0  0  0  0  0  0  0  0
    8.5466   44.5747  129.3652 C   0  0  0  0  0  0  0  0  0  0  0  0
    9.8509   44.2167  128.8002 C   0  0  0  0  0  0  0  0  0  0  0  0
   10.6620   43.5152  129.5041 C   0  0  0  0  0  0  0  0  0  0  0  0
   10.3962   43.0560  130.7993 C   0  0  0  0  0  0  0  0  0  0  0  0
   11.3076   42.2687  131.4633 F   0  0  0  0  0  0  0  0  0  0  0  0
    9.2392   43.3456  131.3596 C   0  0  0  0  0  0  0  0  0  0  0  0
    8.7886   42.7782  132.9668 Cl  0  0  0  0  0  0  0  0  0  0  0  0
    8.2339   44.1543  130.6052 C   0  0  0  0  0  0  0  0  0  0  0  0
 24 25  1  0  0  0
 25  1  1  0  0  0
  1  2  2  0  0  0
  2  3  1  0  0  0
  3  4  2  0  0  0
  4  5  1  0  0  0
  5  6  2  0  0  0
  6  7  1  0  0  0
  7 26  1  0  0  0
 26 28  1  0  0  0
 28 29  2  0  0  0
 29 30  1  0  0  0
 30 31  2  0  0  0
 31 32  1  0  0  0
 31 33  1  0  0  0
 33 34  1  0  0  0
 33 35  2  0  0  0
  7  8  2  0  0  0
  8  9  1  0  0  0
  9 10  2  0  0  0
 10 11  1  0  0  0
 11 12  1  0  0  0
 12 13  2  0  0  0
 12 15  1  0  0  0
 15 16  2  0  0  0
 16 17  1  0  0  0
 17 18  1  0  0  0
 18 19  1  0  0  0
 19 20  1  0  0  0
 20 21  1  0  0  0
 21 22  1  0  0  0
 22 23  1  0  0  0
 10  1  1  0  0  0
 23 18  1  0  0  0
  8  3  1  0  0  0
 35 28  1  0  0  0
 26 27  1  0  0  0
 11 14  1  0  0  0
M  END
> <minimizedAffinity>
13.24050

> <CNNscore>
0.1584876180

> <CNNaffinity>
7.6839737892

> <CNN_VS>
1.2178146839

> <CNNaffinity_variance>
0.3773143291

$$$$
[H]/C(C(=O)N([H])c1c(OC([H])([H])[H])c([H])c2nc([H])nc(N([H])c3c([H])c([H])c(F)c(Cl)c3[H])c2c1[H])=C(/[H])C([H])([H])N1C([H])([H])C([H])([H])OC([H])([H])C1([H])[H]


 35 38  0  0  0  0  0  0  0  0999 V2000
    9.8853   49.7881  132.9146 C   0  0  0  0  0  0  0  0  0  0  0  0
   10.4399   48.8233  133.7151 C   0  0  0  0  0  0  0  0  0  0  0  0
   10.2834   47.4219  133.4087 C   0  0  0  0  0  0  0  0  0  0  0  0
   10.6360   46.5610  134.3096 N   0  0  0  0  0  0  0  0  0  0  0  0
   10.3303   45.1971  134.2232 C   0  0  0  0  0  0  0  0  0  0  0  0
    9.6394   44.8741  133.1019 N   0  0  0  0  0  0  0  0  0  0  0  0
    9.2248   45.6650  132.1061 C   0  0  0  0  0  0  0  0  0  0  0  0
    9.5814   47.0160  132.2922 C   0  0  0  0  0  0  0  0  0  0  0  0
    9.0089   47.9947  131.4157 C   0  0  0  0  0  0  0  0  0  0  0  0
    9.1943   49.2029  131.7688 C   0  0  0  0  0  0  0  0  0  0  0  0
    9.1353   50.3368  130.8029 N   0  0  0  0  0  0  0  0  0  0  0  0
    7.8941   50.6270  130.2047 C   0  0  0  0  0  0  0  0  0  0  0  0
    6.8641   49.9997  130.6569 O   0  0  0  0  0  0  0  0  0  0  0  0
    9.9714   50.8553  130.6397 H   0  0  0  0  0  0  0  0  0  0  0  0
    7.6984   51.5091  129.1311 C   0  0  0  0  0  0  0  0  0  0  0  0
    6.9716   52.5939  128.9339 C   0  0  0  0  0  0  0  0  0  0  0  0
    7.0562   53.2923  127.6552 C   0  0  0  0  0  0  0  0  0  0  0  0
    7.1284   53.9122  126.5159 N   0  0  0  0  0  0  0  0  0  0  0  0
    5.9655   53.9078  125.6924 C   0  0  0  0  0  0  0  0  0  0  0  0
    6.0480   54.8487  124.5319 C   0  0  0  0  0  0  0  0  0  0  0  0
    7.2999   54.8298  123.8917 O   0  0  0  0  0  0  0  0  0  0  0  0
    7.9601   53.6341  124.2158 C   0  0  0  0  0  0  0  0  0  0  0  0
    8.3014   53.6119  125.6720 C   0  0  0  0  0  0  0  0  0  0  0  0
    9.6161   52.0294  134.0103 C   0  0  0  0  0  0  0  0  0  0  0  0
    9.8303   51.0404  133.0063 O   0  0  0  0  0  0  0  0  0  0  0  0
    8.5366   45.1958  130.9773 N   0  0  0  0  0  0  0  0  0  0  0  0
    8.7236   44.2109  130.6489 H   0  0  0  0  0  0  0  0  0  0  0  0
    7.5874   45.9314  130.2517 C   0  0  0  0  0  0  0  0  0  0  0  0
    8.1690   46.7048  129.1507 C   0  0  0  0  0  0  0  0  0  0  0  0
    7.3961   47.4157  128.4140 C   0  0  0  0  0  0  0  0  0  0  0  0
    6.0096   47.5120  128.5794 C   0  0  0  0  0  0  0  0  0  0  0  0
    5.2640   48.3368  127.7699 F   0  0  0  0  0  0  0  0  0  0  0  0
    5.4298   46.8398  129.5533 C   0  0  0  0  0  0  0  0  0  0  0  0
    3.6986   46.9278  129.8747 Cl  0  0  0  0  0  0  0  0  0  0  0  0
    6.2591   45.9912  130.4621 C   0  0  0  0  0  0  0  0  0  0  0  0
 24 25  1  0  0  0
 25  1  1  0  0  0
  1  2  2  0  0  0
  2  3  1  0  0  0
  3  4  2  0  0  0
  4  5  1  0  0  0
  5  6  2  0  0  0
  6  7  1  0  0  0
  7 26  1  0  0  0
 26 28  1  0  0  0
 28 29  2  0  0  0
 29 30  1  0  0  0
 30 31  2  0  0  0
 31 32  1  0  0  0
 31 33  1  0  0  0
 33 34  1  0  0  0
 33 35  2  0  0  0
  7  8  2  0  0  0
  8  9  1  0  0  0
  9 10  2  0  0  0
 10 11  1  0  0  0
 11 12  1  0  0  0
 12 13  2  0  0  0
 12 15  1  0  0  0
 15 16  2  0  0  0
 16 17  1  0  0  0
 17 18  1  0  0  0
 18 19  1  0  0  0
 19 20  1  0  0  0
 20 21  1  0  0  0
 21 22  1  0  0  0
 22 23  1  0  0  0
 10  1  1  0  0  0
 23 18  1  0  0  0
  8  3  1  0  0  0
 35 28  1  0  0  0
 26 27  1  0  0  0
 11 14  1  0  0  0
M  END
> <minimizedAffinity>
4.61213

> <CNNscore>
0.1508001387

> <CNNaffinity>
7.1603927612

> <CNN_VS>
1.0797882080

> <CNNaffinity_variance>
0.6663656235

$$$$
[H]/C(C(=O)N([H])c1c(OC([H])([H])[H])c([H])c2nc([H])nc(N([H])c3c([H])c([H])c(F)c(Cl)c3[H])c2c1[H])=C(/[H])C([H])([H])N1C([H])([H])C([H])([H])OC([H])([H])C1([H])[H]


 35 38  0  0  0  0  0  0  0  0999 V2000
    9.7432   45.1428  128.2788 C   0  0  0  0  0  0  0  0  0  0  0  0
    9.4673   43.8603  128.6766 C   0  0  0  0  0  0  0  0  0  0  0  0
    9.6174   43.4601  130.0548 C   0  0  0  0  0  0  0  0  0  0  0  0
    9.5564   42.1961  130.3294 N   0  0  0  0  0  0  0  0  0  0  0  0
    9.9048   41.6687  131.5791 C   0  0  0  0  0  0  0  0  0  0  0  0
   10.3013   42.6143  132.4667 N   0  0  0  0  0  0  0  0  0  0  0  0
   10.4017   43.9381  132.3044 C   0  0  0  0  0  0  0  0  0  0  0  0
   10.0304   44.3634  131.0127 C   0  0  0  0  0  0  0  0  0  0  0  0
   10.3033   45.7205  130.6418 C   0  0  0  0  0  0  0  0  0  0  0  0
   10.1480   45.9789  129.4057 C   0  0  0  0  0  0  0  0  0  0  0  0
    9.8940   47.3589  128.9025 N   0  0  0  0  0  0  0  0  0  0  0  0
    8.7990   48.0632  129.4387 C   0  0  0  0  0  0  0  0  0  0  0  0
    8.1937   47.5300  130.4428 O   0  0  0  0  0  0  0  0  0  0  0  0
   10.5236   47.7323  128.2252 H   0  0  0  0  0  0  0  0  0  0  0  0
    8.2908   49.2726  128.9407 C   0  0  0  0  0  0  0  0  0  0  0  0
    7.3737   50.1352  129.3393 C   0  0  0  0  0  0  0  0  0  0  0  0
    7.1354   51.3432  128.5557 C   0  0  0  0  0  0  0  0  0  0  0  0
    6.9270   52.4189  127.8578 N   0  0  0  0  0  0  0  0  0  0  0  0
    7.5239   52.4879  126.5657 C   0  0  0  0  0  0  0  0  0  0  0  0
    7.0297   53.6309  125.7363 C   0  0  0  0  0  0  0  0  0  0  0  0
    6.9066   54.8291  126.4620 O   0  0  0  0  0  0  0  0  0  0  0  0
    7.6968   54.7448  127.6192 C   0  0  0  0  0  0  0  0  0  0  0  0
    7.1466   53.7066  128.5448 C   0  0  0  0  0  0  0  0  0  0  0  0
   10.3968   45.5514  125.8908 C   0  0  0  0  0  0  0  0  0  0  0  0
    9.7504   45.7006  127.1526 O   0  0  0  0  0  0  0  0  0  0  0  0
   10.8017   44.8168  133.3221 N   0  0  0  0  0  0  0  0  0  0  0  0
   11.5314   44.4893  134.0099 H   0  0  0  0  0  0  0  0  0  0  0  0
   10.3216   46.1245  133.4893 C   0  0  0  0  0  0  0  0  0  0  0  0
   11.0109   47.1088  132.6499 C   0  0  0  0  0  0  0  0  0  0  0  0
   10.6552   48.3395  132.7151 C   0  0  0  0  0  0  0  0  0  0  0  0
    9.6362   48.8286  133.5407 C   0  0  0  0  0  0  0  0  0  0  0  0
    9.3529   50.1739  133.5803 F   0  0  0  0  0  0  0  0  0  0  0  0
    8.9812   47.9909  134.3189 C   0  0  0  0  0  0  0  0  0  0  0  0
    7.7129   48.5113  135.4275 Cl  0  0  0  0  0  0  0  0  0  0  0  0
    9.3371   46.5394  134.3085 C   0  0  0  0  0  0  0  0  0  0  0  0
 24 25  1  0  0  0
 25  1  1  0  0  0
  1  2  2  0  0  0
  2  3  1  0  0  0
  3  4  2  0  0  0
  4  5  1  0  0  0
  5  6  2  0  0  0
  6  7  1  0  0  0
  7 26  1  0  0  0
 26 28  1  0  0  0
 28 29  2  0  0  0
 29 30  1  0  0  0
 30 31  2  0  0  0
 31 32  1  0  0  0
 31 33  1  0  0  0
 33 34  1  0  0  0
 33 35  2  0  0  0
  7  8  2  0  0  0
  8  9  1  0  0  0
  9 10  2  0  0  0
 10 11  1  0  0  0
 11 12  1  0  0  0
 12 13  2  0  0  0
 12 15  1  0  0  0
 15 16  2  0  0  0
 16 17  1  0  0  0
 17 18  1  0  0  0
 18 19  1  0  0  0
 19 20  1  0  0  0
 20 21  1  0  0  0
 21 22  1  0  0  0
 22 23  1  0  0  0
 10  1  1  0  0  0
 23 18  1  0  0  0
  8  3  1  0  0  0
 35 28  1  0  0  0
 26 27  1  0  0  0
 11 14  1  0  0  0
M  END
> <minimizedAffinity>
8.01535

> <CNNscore>
0.1496277899

> <CNNaffinity>
7.2948455811

> <CNN_VS>
1.0915116072

> <CNNaffinity_variance>
0.2933392823

$$$$
[H]c1nc2c([H])c(OC([H])([H])C([H])([H])C([H])([H])N3C([H])([H])C([H])([H])C([H])([H])C3([H])[H])c(OC([H])([H])[H])c([H])c2c(Oc2c([H])c([H])c(N([H])C(=O)C3(C(=O)N([H])c4c([H])c([H])c(F)c([H])c4[H])C([H])([H])C3([H])[H])c([H])c2F)c1[H]


 47 52  0  0  0  0  0  0  0  0999 V2000
    9.0734   48.2197  132.7865 C   0  0  0  0  0  0  0  0  0  0  0  0
    9.7003   49.0715  131.8870 C   0  0  0  0  0  0  0  0  0  0  0  0
   10.1309   50.3438  132.2949 C   0  0  0  0  0  0  0  0  0  0  0  0
    9.9550   50.7982  133.5781 C   0  0  0  0  0  0  0  0  0  0  0  0
    9.3215   49.9264  134.4752 C   0  0  0  0  0  0  0  0  0  0  0  0
    8.9033   48.6855  134.0751 C   0  0  0  0  0  0  0  0  0  0  0  0
    8.3151   47.8533  134.9924 F   0  0  0  0  0  0  0  0  0  0  0  0
   10.3345   52.0766  134.0365 N   0  0  0  0  0  0  0  0  0  0  0  0
   11.5378   52.3249  134.6779 C   0  0  0  0  0  0  0  0  0  0  0  0
   12.3544   51.3496  134.8501 O   0  0  0  0  0  0  0  0  0  0  0  0
    9.6135   52.8360  133.8403 H   0  0  0  0  0  0  0  0  0  0  0  0
   12.0348   53.6225  135.2160 C   0  0  0  0  0  0  0  0  0  0  0  0
   10.8585   54.4405  135.8021 C   0  0  0  0  0  0  0  0  0  0  0  0
   12.0093   53.9084  136.6447 C   0  0  0  0  0  0  0  0  0  0  0  0
   12.8855   54.4876  134.3282 C   0  0  0  0  0  0  0  0  0  0  0  0
   12.9267   55.7288  134.6080 O   0  0  0  0  0  0  0  0  0  0  0  0
   13.5914   53.9301  133.2469 N   0  0  0  0  0  0  0  0  0  0  0  0
   13.4554   52.8748  133.1172 H   0  0  0  0  0  0  0  0  0  0  0  0
   14.4391   54.5757  132.3151 C   0  0  0  0  0  0  0  0  0  0  0  0
   14.1886   55.7965  131.7955 C   0  0  0  0  0  0  0  0  0  0  0  0
   15.0365   56.4195  130.8652 C   0  0  0  0  0  0  0  0  0  0  0  0
   16.1647   55.7588  130.4700 C   0  0  0  0  0  0  0  0  0  0  0  0
   17.0236   56.3041  129.5759 F   0  0  0  0  0  0  0  0  0  0  0  0
   16.4439   54.5017  130.9909 C   0  0  0  0  0  0  0  0  0  0  0  0
   15.6038   53.9303  131.8866 C   0  0  0  0  0  0  0  0  0  0  0  0
    8.6746   46.9834  132.3299 O   0  0  0  0  0  0  0  0  0  0  0  0
    9.9601   43.4781  130.6988 C   0  0  0  0  0  0  0  0  0  0  0  0
    9.5206   44.6656  131.2395 C   0  0  0  0  0  0  0  0  0  0  0  0
    8.7580   45.5272  130.4804 C   0  0  0  0  0  0  0  0  0  0  0  0
    8.3087   46.7433  131.0318 C   0  0  0  0  0  0  0  0  0  0  0  0
    7.5529   47.6081  130.2888 C   0  0  0  0  0  0  0  0  0  0  0  0
    7.2316   47.2652  128.9714 C   0  0  0  0  0  0  0  0  0  0  0  0
    7.6492   46.1113  128.4271 N   0  0  0  0  0  0  0  0  0  0  0  0
    8.4022   45.2593  129.1788 C   0  0  0  0  0  0  0  0  0  0  0  0
    8.8478   44.0580  128.6342 C   0  0  0  0  0  0  0  0  0  0  0  0
    9.6086   43.1900  129.3789 C   0  0  0  0  0  0  0  0  0  0  0  0
   11.9823   42.9746  131.9575 C   0  0  0  0  0  0  0  0  0  0  0  0
   10.7375   42.5672  131.4249 O   0  0  0  0  0  0  0  0  0  0  0  0
   10.0447   41.9987  128.8231 O   0  0  0  0  0  0  0  0  0  0  0  0
    9.9844   41.6698  127.4668 C   0  0  0  0  0  0  0  0  0  0  0  0
    9.9884   40.1476  127.3743 C   0  0  0  0  0  0  0  0  0  0  0  0
   10.8018   39.6761  126.2094 C   0  0  0  0  0  0  0  0  0  0  0  0
   12.2185   39.6323  126.4692 N   0  0  0  0  0  0  0  0  0  0  0  0
   12.5888   38.2432  126.7114 C   0  0  0  0  0  0  0  0  0  0  0  0
   13.1238   37.7183  125.4173 C   0  0  0  0  0  0  0  0  0  0  0  0
   13.2684   38.8772  124.4880 C   0  0  0  0  0  0  0  0  0  0  0  0
   13.0318   40.0757  125.3838 C   0  0  0  0  0  0  0  0  0  0  0  0
 37 38  1  0  0  0
 38 27  1  0  0  0
 27 28  2  0  0  0
 28 29  1  0  0  0
 29 30  2  0  0  0
 30 26  1  0  0  0
 26  1  1  0  0  0
  1  2  2  0  0  0
  2  3  1  0  0  0
  3  4  2  0  0  0
  4  8  1  0  0  0
  8  9  1  0  0  0
  9 10  2  0  0  0
  9 12  1  0  0  0
 12 13  1  0  0  0
 13 14  1  0  0  0
 12 15  1  0  0  0
 15 16  2  0  0  0
 15 17  1  0  0  0
 17 19  1  0  0  0
 19 20  2  0  0  0
 20 21  1  0  0  0
 21 22  2  0  0  0
 22 23  1  0  0  0
 22 24  1  0  0  0
 24 25  2  0  0  0
  4  5  1  0  0  0
  5  6  2  0  0  0
  6  7  1  0  0  0
 30 31  1  0  0  0
 31 32  2  0  0  0
 32 33  1  0  0  0
 33 34  2  0  0  0
 34 35  1  0  0  0
 35 36  2  0  0  0
 36 39  1  0  0  0
 39 40  1  0  0  0
 40 41  1  0  0  0
 41 42  1  0  0  0
 42 43  1  0  0  0
 43 44  1  0  0  0
 44 45  1  0  0  0
 45 46  1  0  0  0
 46 47  1  0  0  0
 36 27  1  0  0  0
 47 43  1  0  0  0
 34 29  1  0  0  0
  6  1  1  0  0  0
 14 12  1  0  0  0
 25 19  1  0  0  0
  8 11  1  0  0  0
 17 18  1  0  0  0
M  END
> <minimizedAffinity>
49.91154

> <CNNscore>
0.3855658174

> <CNNaffinity>
7.4711103439

> <CNN_VS>
2.8806047440

> <CNNaffinity_variance>
0.7276150584

$$$$
[H]c1nc2c([H])c(OC([H])([H])C([H])([H])C([H])([H])N3C([H])([H])C([H])([H])C([H])([H])C3([H])[H])c(OC([H])([H])[H])c([H])c2c(Oc2c([H])c([H])c(N([H])C(=O)C3(C(=O)N([H])c4c([H])c([H])c(F)c([H])c4[H])C([H])([H])C3([H])[H])c([H])c2F)c1[H]


 47 52  0  0  0  0  0  0  0  0999 V2000
   10.6465   46.9678  133.8829 C   0  0  0  0  0  0  0  0  0  0  0  0
   11.1237   47.5469  132.7148 C   0  0  0  0  0  0  0  0  0  0  0  0
   10.2955   48.3772  131.9433 C   0  0  0  0  0  0  0  0  0  0  0  0
    8.9983   48.6499  132.2996 C   0  0  0  0  0  0  0  0  0  0  0  0
    8.5310   48.0589  133.4822 C   0  0  0  0  0  0  0  0  0  0  0  0
    9.3412   47.2504  134.2336 C   0  0  0  0  0  0  0  0  0  0  0  0
    8.8535   46.7169  135.3987 F   0  0  0  0  0  0  0  0  0  0  0  0
    8.1097   49.4466  131.5486 N   0  0  0  0  0  0  0  0  0  0  0  0
    7.4154   48.9737  130.4461 C   0  0  0  0  0  0  0  0  0  0  0  0
    7.5748   47.7481  130.0997 O   0  0  0  0  0  0  0  0  0  0  0  0
    8.0169   50.4449  131.9089 H   0  0  0  0  0  0  0  0  0  0  0  0
    6.4690   49.7233  129.5729 C   0  0  0  0  0  0  0  0  0  0  0  0
    6.5068   51.2317  129.9195 C   0  0  0  0  0  0  0  0  0  0  0  0
    6.9493   50.6708  128.5751 C   0  0  0  0  0  0  0  0  0  0  0  0
    5.0480   49.2418  129.4767 C   0  0  0  0  0  0  0  0  0  0  0  0
    4.1904   50.0734  129.0369 O   0  0  0  0  0  0  0  0  0  0  0  0
    4.7071   47.9323  129.8607 N   0  0  0  0  0  0  0  0  0  0  0  0
    5.5248   47.3437  130.2265 H   0  0  0  0  0  0  0  0  0  0  0  0
    3.4392   47.3036  129.8355 C   0  0  0  0  0  0  0  0  0  0  0  0
    2.2694   47.9735  129.9131 C   0  0  0  0  0  0  0  0  0  0  0  0
    1.0196   47.3330  129.8951 C   0  0  0  0  0  0  0  0  0  0  0  0
    0.9886   45.9713  129.7942 C   0  0  0  0  0  0  0  0  0  0  0  0
   -0.1836   45.2932  129.7717 F   0  0  0  0  0  0  0  0  0  0  0  0
    2.1791   45.2602  129.7128 C   0  0  0  0  0  0  0  0  0  0  0  0
    3.3672   45.9104  129.7332 C   0  0  0  0  0  0  0  0  0  0  0  0
   11.5050   46.1645  134.5994 O   0  0  0  0  0  0  0  0  0  0  0  0
    9.2684   44.2466  131.7852 C   0  0  0  0  0  0  0  0  0  0  0  0
   10.0322   44.8857  132.7360 C   0  0  0  0  0  0  0  0  0  0  0  0
   11.2271   44.3330  133.1445 C   0  0  0  0  0  0  0  0  0  0  0  0
   12.0091   44.9851  134.1181 C   0  0  0  0  0  0  0  0  0  0  0  0
   13.1959   44.4465  134.5338 C   0  0  0  0  0  0  0  0  0  0  0  0
   13.6221   43.2370  133.9754 C   0  0  0  0  0  0  0  0  0  0  0  0
   12.8923   42.5998  133.0461 N   0  0  0  0  0  0  0  0  0  0  0  0
   11.7115   43.1476  132.6418 C   0  0  0  0  0  0  0  0  0  0  0  0
   10.9374   42.5032  131.6807 C   0  0  0  0  0  0  0  0  0  0  0  0
    9.7445   43.0422  131.2642 C   0  0  0  0  0  0  0  0  0  0  0  0
    7.2530   45.5466  132.2038 C   0  0  0  0  0  0  0  0  0  0  0  0
    8.0471   44.7633  131.3349 O   0  0  0  0  0  0  0  0  0  0  0  0
    8.9855   42.3892  130.3074 O   0  0  0  0  0  0  0  0  0  0  0  0
    9.4608   41.9208  129.0802 C   0  0  0  0  0  0  0  0  0  0  0  0
    9.0721   42.9520  128.0260 C   0  0  0  0  0  0  0  0  0  0  0  0
    9.1927   44.3457  128.5586 C   0  0  0  0  0  0  0  0  0  0  0  0
   10.2975   45.0865  128.0042 N   0  0  0  0  0  0  0  0  0  0  0  0
   10.5790   46.2071  128.8932 C   0  0  0  0  0  0  0  0  0  0  0  0
   11.7111   45.7751  129.7696 C   0  0  0  0  0  0  0  0  0  0  0  0
   12.2284   44.4830  129.2310 C   0  0  0  0  0  0  0  0  0  0  0  0
   11.5131   44.3462  127.9026 C   0  0  0  0  0  0  0  0  0  0  0  0
 37 38  1  0  0  0
 38 27  1  0  0  0
 27 28  2  0  0  0
 28 29  1  0  0  0
 29 30  2  0  0  0
 30 26  1  0  0  0
 26  1  1  0  0  0
  1  2  2  0  0  0
  2  3  1  0  0  0
  3  4  2  0  0  0
  4  8  1  0  0  0
  8  9  1  0  0  0
  9 10  2  0  0  0
  9 12  1  0  0  0
 12 13  1  0  0  0
 13 14  1  0  0  0
 12 15  1  0  0  0
 15 16  2  0  0  0
 15 17  1  0  0  0
 17 19  1  0  0  0
 19 20  2  0  0  0
 20 21  1  0  0  0
 21 22  2  0  0  0
 22 23  1  0  0  0
 22 24  1  0  0  0
 24 25  2  0  0  0
  4  5  1  0  0  0
  5  6  2  0  0  0
  6  7  1  0  0  0
 30 31  1  0  0  0
 31 32  2  0  0  0
 32 33  1  0  0  0
 33 34  2  0  0  0
 34 35  1  0  0  0
 35 36  2  0  0  0
 36 39  1  0  0  0
 39 40  1  0  0  0
 40 41  1  0  0  0
 41 42  1  0  0  0
 42 43  1  0  0  0
 43 44  1  0  0  0
 44 45  1  0  0  0
 45 46  1  0  0  0
 46 47  1  0  0  0
 36 27  1  0  0  0
 47 43  1  0  0  0
 34 29  1  0  0  0
  6  1  1  0  0  0
 14 12  1  0  0  0
 25 19  1  0  0  0
  8 11  1  0  0  0
 17 18  1  0  0  0
M  END
> <minimizedAffinity>
13.69906

> <CNNscore>
0.3811634481

> <CNNaffinity>
8.2414026260

> <CNN_VS>
3.1413214207

> <CNNaffinity_variance>
0.5717172027

$$$$
[H]c1nc2c([H])c(OC([H])([H])C([H])([H])C([H])([H])N3C([H])([H])C([H])([H])C([H])([H])C3([H])[H])c(OC([H])([H])[H])c([H])c2c(Oc2c([H])c([H])c(N([H])C(=O)C3(C(=O)N([H])c4c([H])c([H])c(F)c([H])c4[H])C([H])([H])C3([H])[H])c([H])c2F)c1[H]


 47 52  0  0  0  0  0  0  0  0999 V2000
    7.6669   49.3046  129.7026 C   0  0  0  0  0  0  0  0  0  0  0  0
    7.1678   49.3935  128.4101 C   0  0  0  0  0  0  0  0  0  0  0  0
    6.9196   50.6468  127.8286 C   0  0  0  0  0  0  0  0  0  0  0  0
    7.1531   51.8221  128.4980 C   0  0  0  0  0  0  0  0  0  0  0  0
    7.6583   51.7163  129.8017 C   0  0  0  0  0  0  0  0  0  0  0  0
    7.9005   50.4927  130.3663 C   0  0  0  0  0  0  0  0  0  0  0  0
    8.4227   50.4352  131.6328 F   0  0  0  0  0  0  0  0  0  0  0  0
    6.8915   53.1072  127.9798 N   0  0  0  0  0  0  0  0  0  0  0  0
    7.5899   53.6504  126.9129 C   0  0  0  0  0  0  0  0  0  0  0  0
    8.5084   52.9460  126.3580 O   0  0  0  0  0  0  0  0  0  0  0  0
    6.1040   53.6212  128.4804 H   0  0  0  0  0  0  0  0  0  0  0  0
    7.4124   54.9946  126.2951 C   0  0  0  0  0  0  0  0  0  0  0  0
    7.1400   56.0523  127.3923 C   0  0  0  0  0  0  0  0  0  0  0  0
    8.3820   56.0607  126.5119 C   0  0  0  0  0  0  0  0  0  0  0  0
    6.4279   55.1411  125.1683 C   0  0  0  0  0  0  0  0  0  0  0  0
    6.0256   56.3208  124.9095 O   0  0  0  0  0  0  0  0  0  0  0  0
    5.9871   54.0148  124.4502 N   0  0  0  0  0  0  0  0  0  0  0  0
    6.3952   53.0813  124.7831 H   0  0  0  0  0  0  0  0  0  0  0  0
    5.0794   53.9553  123.3657 C   0  0  0  0  0  0  0  0  0  0  0  0
    5.4601   53.9431  122.0704 C   0  0  0  0  0  0  0  0  0  0  0  0
    4.5455   53.8922  121.0057 C   0  0  0  0  0  0  0  0  0  0  0  0
    3.2115   53.8529  121.2963 C   0  0  0  0  0  0  0  0  0  0  0  0
    2.2782   53.8031  120.3160 F   0  0  0  0  0  0  0  0  0  0  0  0
    2.7955   53.8641  122.6217 C   0  0  0  0  0  0  0  0  0  0  0  0
    3.7052   53.9139  123.6239 C   0  0  0  0  0  0  0  0  0  0  0  0
    7.8925   48.0486  130.2195 O   0  0  0  0  0  0  0  0  0  0  0  0
   10.3546   46.7638  133.2008 C   0  0  0  0  0  0  0  0  0  0  0  0
    9.5296   47.1924  132.1852 C   0  0  0  0  0  0  0  0  0  0  0  0
    9.7892   46.8198  130.8837 C   0  0  0  0  0  0  0  0  0  0  0  0
    8.9467   47.2587  129.8434 C   0  0  0  0  0  0  0  0  0  0  0  0
    9.1941   46.8979  128.5473 C   0  0  0  0  0  0  0  0  0  0  0  0
   10.2976   46.0841  128.2708 C   0  0  0  0  0  0  0  0  0  0  0  0
   11.1125   45.6546  129.2473 N   0  0  0  0  0  0  0  0  0  0  0  0
   10.8543   46.0225  130.5341 C   0  0  0  0  0  0  0  0  0  0  0  0
   11.6872   45.5904  131.5628 C   0  0  0  0  0  0  0  0  0  0  0  0
   11.4407   45.9540  132.8642 C   0  0  0  0  0  0  0  0  0  0  0  0
    9.2998   46.3098  135.3475 C   0  0  0  0  0  0  0  0  0  0  0  0
   10.1373   47.1128  134.5396 O   0  0  0  0  0  0  0  0  0  0  0  0
   12.2784   45.5163  133.8766 O   0  0  0  0  0  0  0  0  0  0  0  0
   12.6379   44.1868  134.1100 C   0  0  0  0  0  0  0  0  0  0  0  0
   11.3647   43.3536  134.0069 C   0  0  0  0  0  0  0  0  0  0  0  0
   11.1555   42.8511  132.6125 C   0  0  0  0  0  0  0  0  0  0  0  0
    9.8830   42.2054  132.4119 N   0  0  0  0  0  0  0  0  0  0  0  0
    8.8648   42.9968  133.0919 C   0  0  0  0  0  0  0  0  0  0  0  0
    8.2393   43.8651  132.0472 C   0  0  0  0  0  0  0  0  0  0  0  0
    8.7483   43.4091  130.7204 C   0  0  0  0  0  0  0  0  0  0  0  0
    9.4728   42.1196  131.0479 C   0  0  0  0  0  0  0  0  0  0  0  0
 37 38  1  0  0  0
 38 27  1  0  0  0
 27 28  2  0  0  0
 28 29  1  0  0  0
 29 30  2  0  0  0
 30 26  1  0  0  0
 26  1  1  0  0  0
  1  2  2  0  0  0
  2  3  1  0  0  0
  3  4  2  0  0  0
  4  8  1  0  0  0
  8  9  1  0  0  0
  9 10  2  0  0  0
  9 12  1  0  0  0
 12 13  1  0  0  0
 13 14  1  0  0  0
 12 15  1  0  0  0
 15 16  2  0  0  0
 15 17  1  0  0  0
 17 19  1  0  0  0
 19 20  2  0  0  0
 20 21  1  0  0  0
 21 22  2  0  0  0
 22 23  1  0  0  0
 22 24  1  0  0  0
 24 25  2  0  0  0
  4  5  1  0  0  0
  5  6  2  0  0  0
  6  7  1  0  0  0
 30 31  1  0  0  0
 31 32  2  0  0  0
 32 33  1  0  0  0
 33 34  2  0  0  0
 34 35  1  0  0  0
 35 36  2  0  0  0
 36 39  1  0  0  0
 39 40  1  0  0  0
 40 41  1  0  0  0
 41 42  1  0  0  0
 42 43  1  0  0  0
 43 44  1  0  0  0
 44 45  1  0  0  0
 45 46  1  0  0  0
 46 47  1  0  0  0
 36 27  1  0  0  0
 47 43  1  0  0  0
 34 29  1  0  0  0
  6  1  1  0  0  0
 14 12  1  0  0  0
 25 19  1  0  0  0
  8 11  1  0  0  0
 17 18  1  0  0  0
M  END
> <minimizedAffinity>
3.19593

> <CNNscore>
0.3734014630

> <CNNaffinity>
7.7477998734

> <CNN_VS>
2.8930397034

> <CNNaffinity_variance>
0.2602454424

$$$$
[H]c1nc2c([H])c(OC([H])([H])C([H])([H])C([H])([H])N3C([H])([H])C([H])([H])C([H])([H])C3([H])[H])c(OC([H])([H])[H])c([H])c2c(Oc2c([H])c([H])c(N([H])C(=O)C3(C(=O)N([H])c4c([H])c([H])c(F)c([H])c4[H])C([H])([H])C3([H])[H])c([H])c2F)c1[H]


 47 52  0  0  0  0  0  0  0  0999 V2000
    7.6475   49.3556  129.5880 C   0  0  0  0  0  0  0  0  0  0  0  0
    7.9108   50.5116  130.3104 C   0  0  0  0  0  0  0  0  0  0  0  0
    7.6602   51.7734  129.7485 C   0  0  0  0  0  0  0  0  0  0  0  0
    7.1535   51.9216  128.4815 C   0  0  0  0  0  0  0  0  0  0  0  0
    6.8916   50.7451  127.7648 C   0  0  0  0  0  0  0  0  0  0  0  0
    7.1359   49.5156  128.3155 C   0  0  0  0  0  0  0  0  0  0  0  0
    6.8374   48.3904  127.5912 F   0  0  0  0  0  0  0  0  0  0  0  0
    6.9139   53.1605  127.8522 N   0  0  0  0  0  0  0  0  0  0  0  0
    7.5978   53.5811  126.7224 C   0  0  0  0  0  0  0  0  0  0  0  0
    8.4807   52.8008  126.2133 O   0  0  0  0  0  0  0  0  0  0  0  0
    6.1551   53.7424  128.3218 H   0  0  0  0  0  0  0  0  0  0  0  0
    7.4412   54.8671  125.9864 C   0  0  0  0  0  0  0  0  0  0  0  0
    8.5323   55.8710  126.4318 C   0  0  0  0  0  0  0  0  0  0  0  0
    8.4368   55.3112  125.0193 C   0  0  0  0  0  0  0  0  0  0  0  0
    6.0909   55.5283  125.9781 C   0  0  0  0  0  0  0  0  0  0  0  0
    5.3892   55.3834  124.9260 O   0  0  0  0  0  0  0  0  0  0  0  0
    5.6470   56.2662  127.0902 N   0  0  0  0  0  0  0  0  0  0  0  0
    6.3446   56.3192  127.9023 H   0  0  0  0  0  0  0  0  0  0  0  0
    4.4186   56.9464  127.2689 C   0  0  0  0  0  0  0  0  0  0  0  0
    4.2998   58.1158  127.9334 C   0  0  0  0  0  0  0  0  0  0  0  0
    3.0713   58.7734  128.1088 C   0  0  0  0  0  0  0  0  0  0  0  0
    1.9477   58.2027  127.5824 C   0  0  0  0  0  0  0  0  0  0  0  0
    0.7325   58.7857  127.7165 F   0  0  0  0  0  0  0  0  0  0  0  0
    2.0448   56.9999  126.8942 C   0  0  0  0  0  0  0  0  0  0  0  0
    3.2462   56.3927  126.7440 C   0  0  0  0  0  0  0  0  0  0  0  0
    7.9114   48.1465  130.1915 O   0  0  0  0  0  0  0  0  0  0  0  0
   10.3518   46.8456  133.1837 C   0  0  0  0  0  0  0  0  0  0  0  0
    9.5339   47.2795  132.1644 C   0  0  0  0  0  0  0  0  0  0  0  0
    9.7847   46.8883  130.8667 C   0  0  0  0  0  0  0  0  0  0  0  0
    8.9497   47.3326  129.8226 C   0  0  0  0  0  0  0  0  0  0  0  0
    9.1885   46.9535  128.5301 C   0  0  0  0  0  0  0  0  0  0  0  0
   10.2758   46.1157  128.2610 C   0  0  0  0  0  0  0  0  0  0  0  0
   11.0834   45.6808  129.2412 N   0  0  0  0  0  0  0  0  0  0  0  0
   10.8339   46.0670  130.5244 C   0  0  0  0  0  0  0  0  0  0  0  0
   11.6595   45.6297  131.5566 C   0  0  0  0  0  0  0  0  0  0  0  0
   11.4216   46.0115  132.8545 C   0  0  0  0  0  0  0  0  0  0  0  0
    9.1107   46.5964  135.2632 C   0  0  0  0  0  0  0  0  0  0  0  0
   10.1428   47.2127  134.5189 O   0  0  0  0  0  0  0  0  0  0  0  0
   12.2519   45.5683  133.8705 O   0  0  0  0  0  0  0  0  0  0  0  0
   12.5831   44.2343  134.1196 C   0  0  0  0  0  0  0  0  0  0  0  0
   11.2997   43.4215  133.9855 C   0  0  0  0  0  0  0  0  0  0  0  0
   11.1790   42.8174  132.6212 C   0  0  0  0  0  0  0  0  0  0  0  0
    9.9071   42.1863  132.3752 N   0  0  0  0  0  0  0  0  0  0  0  0
    8.8943   42.9014  133.1421 C   0  0  0  0  0  0  0  0  0  0  0  0
    8.2505   43.8633  132.1951 C   0  0  0  0  0  0  0  0  0  0  0  0
    8.7438   43.5419  130.8238 C   0  0  0  0  0  0  0  0  0  0  0  0
    9.4791   42.2312  131.0148 C   0  0  0  0  0  0  0  0  0  0  0  0
 37 38  1  0  0  0
 38 27  1  0  0  0
 27 28  2  0  0  0
 28 29  1  0  0  0
 29 30  2  0  0  0
 30 26  1  0  0  0
 26  1  1  0  0  0
  1  2  2  0  0  0
  2  3  1  0  0  0
  3  4  2  0  0  0
  4  8  1  0  0  0
  8  9  1  0  0  0
  9 10  2  0  0  0
  9 12  1  0  0  0
 12 13  1  0  0  0
 13 14  1  0  0  0
 12 15  1  0  0  0
 15 16  2  0  0  0
 15 17  1  0  0  0
 17 19  1  0  0  0
 19 20  2  0  0  0
 20 21  1  0  0  0
 21 22  2  0  0  0
 22 23  1  0  0  0
 22 24  1  0  0  0
 24 25  2  0  0  0
  4  5  1  0  0  0
  5  6  2  0  0  0
  6  7  1  0  0  0
 30 31  1  0  0  0
 31 32  2  0  0  0
 32 33  1  0  0  0
 33 34  2  0  0  0
 34 35  1  0  0  0
 35 36  2  0  0  0
 36 39  1  0  0  0
 39 40  1  0  0  0
 40 41  1  0  0  0
 41 42  1  0  0  0
 42 43  1  0  0  0
 43 44  1  0  0  0
 44 45  1  0  0  0
 45 46  1  0  0  0
 46 47  1  0  0  0
 36 27  1  0  0  0
 47 43  1  0  0  0
 34 29  1  0  0  0
  6  1  1  0  0  0
 14 12  1  0  0  0
 25 19  1  0  0  0
  8 11  1  0  0  0
 17 18  1  0  0  0
M  END
> <minimizedAffinity>
1.48118

> <CNNscore>
0.3259387612

> <CNNaffinity>
7.5763373375

> <CNN_VS>
2.4694221020

> <CNNaffinity_variance>
0.2339381725

$$$$
[H]c1nc2c([H])c(OC([H])([H])C([H])([H])C([H])([H])N3C([H])([H])C([H])([H])C([H])([H])C3([H])[H])c(OC([H])([H])[H])c([H])c2c(Oc2c([H])c([H])c(N([H])C(=O)C3(C(=O)N([H])c4c([H])c([H])c(F)c([H])c4[H])C([H])([H])C3([H])[H])c([H])c2F)c1[H]


 47 52  0  0  0  0  0  0  0  0999 V2000
    9.3007   48.7624  132.8665 C   0  0  0  0  0  0  0  0  0  0  0  0
    9.9608   49.5673  131.9479 C   0  0  0  0  0  0  0  0  0  0  0  0
   10.3847   50.8564  132.3077 C   0  0  0  0  0  0  0  0  0  0  0  0
   10.1696   51.3730  133.5610 C   0  0  0  0  0  0  0  0  0  0  0  0
    9.5029   50.5480  134.4780 C   0  0  0  0  0  0  0  0  0  0  0  0
    9.0915   49.2907  134.1249 C   0  0  0  0  0  0  0  0  0  0  0  0
    8.4696   48.5060  135.0616 F   0  0  0  0  0  0  0  0  0  0  0  0
   10.5408   52.6707  133.9692 N   0  0  0  0  0  0  0  0  0  0  0  0
   11.7921   52.9746  134.4821 C   0  0  0  0  0  0  0  0  0  0  0  0
   12.6617   52.0352  134.5762 O   0  0  0  0  0  0  0  0  0  0  0  0
    9.7727   53.3980  133.8430 H   0  0  0  0  0  0  0  0  0  0  0  0
   12.2873   54.2971  134.9574 C   0  0  0  0  0  0  0  0  0  0  0  0
   12.9371   55.0737  133.7863 C   0  0  0  0  0  0  0  0  0  0  0  0
   11.6779   55.5407  134.5034 C   0  0  0  0  0  0  0  0  0  0  0  0
   13.1748   54.3363  136.1703 C   0  0  0  0  0  0  0  0  0  0  0  0
   14.3976   54.6319  135.9755 O   0  0  0  0  0  0  0  0  0  0  0  0
   12.6566   54.0555  137.4474 N   0  0  0  0  0  0  0  0  0  0  0  0
   11.6140   53.8074  137.4651 H   0  0  0  0  0  0  0  0  0  0  0  0
   13.3274   54.0494  138.6938 C   0  0  0  0  0  0  0  0  0  0  0  0
   14.2573   53.1333  139.0392 C   0  0  0  0  0  0  0  0  0  0  0  0
   14.9075   53.1368  140.2841 C   0  0  0  0  0  0  0  0  0  0  0  0
   14.5833   54.1117  141.1840 C   0  0  0  0  0  0  0  0  0  0  0  0
   15.1735   54.1710  142.4016 F   0  0  0  0  0  0  0  0  0  0  0  0
   13.6296   55.0655  140.8512 C   0  0  0  0  0  0  0  0  0  0  0  0
   13.0218   55.0321  139.6412 C   0  0  0  0  0  0  0  0  0  0  0  0
    8.9106   47.5069  132.4574 O   0  0  0  0  0  0  0  0  0  0  0  0
   10.1590   43.9580  130.8931 C   0  0  0  0  0  0  0  0  0  0  0  0
    9.7316   45.1599  131.4113 C   0  0  0  0  0  0  0  0  0  0  0  0
    8.9396   45.9943  130.6521 C   0  0  0  0  0  0  0  0  0  0  0  0
    8.5027   47.2250  131.1804 C   0  0  0  0  0  0  0  0  0  0  0  0
    7.7179   48.0632  130.4369 C   0  0  0  0  0  0  0  0  0  0  0  0
    7.3546   47.6782  129.1422 C   0  0  0  0  0  0  0  0  0  0  0  0
    7.7597   46.5097  128.6201 N   0  0  0  0  0  0  0  0  0  0  0  0
    8.5418   45.6847  129.3720 C   0  0  0  0  0  0  0  0  0  0  0  0
    8.9753   44.4689  128.8502 C   0  0  0  0  0  0  0  0  0  0  0  0
    9.7650   43.6276  129.5953 C   0  0  0  0  0  0  0  0  0  0  0  0
   12.2273   43.5004  132.0929 C   0  0  0  0  0  0  0  0  0  0  0  0
   10.9650   43.0733  131.6205 O   0  0  0  0  0  0  0  0  0  0  0  0
   10.1884   42.4214  129.0623 O   0  0  0  0  0  0  0  0  0  0  0  0
   10.0299   42.0256  127.7320 C   0  0  0  0  0  0  0  0  0  0  0  0
    9.9992   40.5009  127.7188 C   0  0  0  0  0  0  0  0  0  0  0  0
   10.6045   39.9561  126.4629 C   0  0  0  0  0  0  0  0  0  0  0  0
   12.0357   39.8003  126.5273 N   0  0  0  0  0  0  0  0  0  0  0  0
   12.3241   38.3938  126.7803 C   0  0  0  0  0  0  0  0  0  0  0  0
   12.6280   37.7806  125.4506 C   0  0  0  0  0  0  0  0  0  0  0  0
   12.7326   38.8899  124.4578 C   0  0  0  0  0  0  0  0  0  0  0  0
   12.7209   40.1345  125.3212 C   0  0  0  0  0  0  0  0  0  0  0  0
 37 38  1  0  0  0
 38 27  1  0  0  0
 27 28  2  0  0  0
 28 29  1  0  0  0
 29 30  2  0  0  0
 30 26  1  0  0  0
 26  1  1  0  0  0
  1  2  2  0  0  0
  2  3  1  0  0  0
  3  4  2  0  0  0
  4  8  1  0  0  0
  8  9  1  0  0  0
  9 10  2  0  0  0
  9 12  1  0  0  0
 12 13  1  0  0  0
 13 14  1  0  0  0
 12 15  1  0  0  0
 15 16  2  0  0  0
 15 17  1  0  0  0
 17 19  1  0  0  0
 19 20  2  0  0  0
 20 21  1  0  0  0
 21 22  2  0  0  0
 22 23  1  0  0  0
 22 24  1  0  0  0
 24 25  2  0  0  0
  4  5  1  0  0  0
  5  6  2  0  0  0
  6  7  1  0  0  0
 30 31  1  0  0  0
 31 32  2  0  0  0
 32 33  1  0  0  0
 33 34  2  0  0  0
 34 35  1  0  0  0
 35 36  2  0  0  0
 36 39  1  0  0  0
 39 40  1  0  0  0
 40 41  1  0  0  0
 41 42  1  0  0  0
 42 43  1  0  0  0
 43 44  1  0  0  0
 44 45  1  0  0  0
 45 46  1  0  0  0
 46 47  1  0  0  0
 36 27  1  0  0  0
 47 43  1  0  0  0
 34 29  1  0  0  0
  6  1  1  0  0  0
 14 12  1  0  0  0
 25 19  1  0  0  0
  8 11  1  0  0  0
 17 18  1  0  0  0
M  END
> <minimizedAffinity>
75.42992

> <CNNscore>
0.3246645033

> <CNNaffinity>
7.5742502213

> <CNN_VS>
2.4590902328

> <CNNaffinity_variance>
0.6931512952

$$$$
[H]c1nc2c([H])c(OC([H])([H])C([H])([H])C([H])([H])N3C([H])([H])C([H])([H])C([H])([H])C3([H])[H])c(OC([H])([H])[H])c([H])c2c(Oc2c([H])c([H])c(N([H])C(=O)C3(C(=O)N([H])c4c([H])c([H])c(F)c([H])c4[H])C([H])([H])C3([H])[H])c([H])c2F)c1[H]


 47 52  0  0  0  0  0  0  0  0999 V2000
    8.1965   45.8853  131.4936 C   0  0  0  0  0  0  0  0  0  0  0  0
    8.7567   45.5076  130.2808 C   0  0  0  0  0  0  0  0  0  0  0  0
    9.4756   44.3067  130.1732 C   0  0  0  0  0  0  0  0  0  0  0  0
    9.6566   43.4651  131.2422 C   0  0  0  0  0  0  0  0  0  0  0  0
    9.0841   43.8594  132.4600 C   0  0  0  0  0  0  0  0  0  0  0  0
    8.3823   45.0307  132.5620 C   0  0  0  0  0  0  0  0  0  0  0  0
    7.8136   45.3635  133.7644 F   0  0  0  0  0  0  0  0  0  0  0  0
   10.3965   42.2653  131.2036 N   0  0  0  0  0  0  0  0  0  0  0  0
    9.9102   41.0930  130.6466 C   0  0  0  0  0  0  0  0  0  0  0  0
    8.7369   41.1012  130.1262 O   0  0  0  0  0  0  0  0  0  0  0  0
   11.3663   42.3434  131.6377 H   0  0  0  0  0  0  0  0  0  0  0  0
   10.5913   39.7703  130.5641 C   0  0  0  0  0  0  0  0  0  0  0  0
   11.9250   39.8092  131.3493 C   0  0  0  0  0  0  0  0  0  0  0  0
   10.7486   38.9259  131.7414 C   0  0  0  0  0  0  0  0  0  0  0  0
   10.7975   39.1537  129.2085 C   0  0  0  0  0  0  0  0  0  0  0  0
   11.4468   38.0594  129.1703 O   0  0  0  0  0  0  0  0  0  0  0  0
   10.2891   39.7747  128.0535 N   0  0  0  0  0  0  0  0  0  0  0  0
    9.7753   40.6989  128.2289 H   0  0  0  0  0  0  0  0  0  0  0  0
   10.3756   39.3471  126.7068 C   0  0  0  0  0  0  0  0  0  0  0  0
   11.5412   39.0828  126.0785 C   0  0  0  0  0  0  0  0  0  0  0  0
   11.6096   38.6673  124.7387 C   0  0  0  0  0  0  0  0  0  0  0  0
   10.4435   38.5246  124.0422 C   0  0  0  0  0  0  0  0  0  0  0  0
   10.4405   38.1273  122.7473 F   0  0  0  0  0  0  0  0  0  0  0  0
    9.2318   38.7904  124.6673 C   0  0  0  0  0  0  0  0  0  0  0  0
    9.2026   39.1897  125.9613 C   0  0  0  0  0  0  0  0  0  0  0  0
    7.5007   47.0727  131.5383 O   0  0  0  0  0  0  0  0  0  0  0  0
    7.7483   50.9899  130.4452 C   0  0  0  0  0  0  0  0  0  0  0  0
    7.6556   49.6645  130.8067 C   0  0  0  0  0  0  0  0  0  0  0  0
    6.7487   48.8405  130.1754 C   0  0  0  0  0  0  0  0  0  0  0  0
    6.6517   47.4846  130.5452 C   0  0  0  0  0  0  0  0  0  0  0  0
    5.7546   46.6565  129.9281 C   0  0  0  0  0  0  0  0  0  0  0  0
    4.9345   47.1776  128.9220 C   0  0  0  0  0  0  0  0  0  0  0  0
    5.0113   48.4664  128.5542 N   0  0  0  0  0  0  0  0  0  0  0  0
    5.9093   49.2802  129.1781 C   0  0  0  0  0  0  0  0  0  0  0  0
    6.0048   50.6207  128.8143 C   0  0  0  0  0  0  0  0  0  0  0  0
    6.9038   51.4534  129.4349 C   0  0  0  0  0  0  0  0  0  0  0  0
    9.3649   51.4606  132.2035 C   0  0  0  0  0  0  0  0  0  0  0  0
    8.6514   51.8705  131.0538 O   0  0  0  0  0  0  0  0  0  0  0  0
    6.9870   52.7847  129.0621 O   0  0  0  0  0  0  0  0  0  0  0  0
    7.7215   53.2767  127.9806 C   0  0  0  0  0  0  0  0  0  0  0  0
    6.8772   54.3630  127.3227 C   0  0  0  0  0  0  0  0  0  0  0  0
    6.9470   54.2761  125.8299 C   0  0  0  0  0  0  0  0  0  0  0  0
    6.6237   55.5102  125.1599 N   0  0  0  0  0  0  0  0  0  0  0  0
    6.0930   55.1813  123.8425 C   0  0  0  0  0  0  0  0  0  0  0  0
    4.6032   55.2192  123.9673 C   0  0  0  0  0  0  0  0  0  0  0  0
    4.2791   55.7910  125.3071 C   0  0  0  0  0  0  0  0  0  0  0  0
    5.6192   56.2887  125.8086 C   0  0  0  0  0  0  0  0  0  0  0  0
 37 38  1  0  0  0
 38 27  1  0  0  0
 27 28  2  0  0  0
 28 29  1  0  0  0
 29 30  2  0  0  0
 30 26  1  0  0  0
 26  1  1  0  0  0
  1  2  2  0  0  0
  2  3  1  0  0  0
  3  4  2  0  0  0
  4  8  1  0  0  0
  8  9  1  0  0  0
  9 10  2  0  0  0
  9 12  1  0  0  0
 12 13  1  0  0  0
 13 14  1  0  0  0
 12 15  1  0  0  0
 15 16  2  0  0  0
 15 17  1  0  0  0
 17 19  1  0  0  0
 19 20  2  0  0  0
 20 21  1  0  0  0
 21 22  2  0  0  0
 22 23  1  0  0  0
 22 24  1  0  0  0
 24 25  2  0  0  0
  4  5  1  0  0  0
  5  6  2  0  0  0
  6  7  1  0  0  0
 30 31  1  0  0  0
 31 32  2  0  0  0
 32 33  1  0  0  0
 33 34  2  0  0  0
 34 35  1  0  0  0
 35 36  2  0  0  0
 36 39  1  0  0  0
 39 40  1  0  0  0
 40 41  1  0  0  0
 41 42  1  0  0  0
 42 43  1  0  0  0
 43 44  1  0  0  0
 44 45  1  0  0  0
 45 46  1  0  0  0
 46 47  1  0  0  0
 36 27  1  0  0  0
 47 43  1  0  0  0
 34 29  1  0  0  0
  6  1  1  0  0  0
 14 12  1  0  0  0
 25 19  1  0  0  0
  8 11  1  0  0  0
 17 18  1  0  0  0
M  END
> <minimizedAffinity>
32.13227

> <CNNscore>
0.3236622214

> <CNNaffinity>
7.3806824684

> <CNN_VS>
2.3888480663

> <CNNaffinity_variance>
0.6567239761

$$$$
[H]c1nc2c([H])c(OC([H])([H])C([H])([H])C([H])([H])N3C([H])([H])C([H])([H])C([H])([H])C3([H])[H])c(OC([H])([H])[H])c([H])c2c(Oc2c([H])c([H])c(N([H])C(=O)C3(C(=O)N([H])c4c([H])c([H])c(F)c([H])c4[H])C([H])([H])C3([H])[H])c([H])c2F)c1[H]


 47 52  0  0  0  0  0  0  0  0999 V2000
    9.5712   47.7264  132.9033 C   0  0  0  0  0  0  0  0  0  0  0  0
   10.3638   48.5158  132.0809 C   0  0  0  0  0  0  0  0  0  0  0  0
   10.6869   49.8300  132.4539 C   0  0  0  0  0  0  0  0  0  0  0  0
   10.2420   50.3872  133.6268 C   0  0  0  0  0  0  0  0  0  0  0  0
    9.4437   49.5774  134.4472 C   0  0  0  0  0  0  0  0  0  0  0  0
    9.1309   48.2955  134.0818 C   0  0  0  0  0  0  0  0  0  0  0  0
    8.3722   47.5282  134.9277 F   0  0  0  0  0  0  0  0  0  0  0  0
   10.5045   51.7102  134.0378 N   0  0  0  0  0  0  0  0  0  0  0  0
   11.6468   52.0750  134.7330 C   0  0  0  0  0  0  0  0  0  0  0  0
   12.5162   51.1702  135.0031 O   0  0  0  0  0  0  0  0  0  0  0  0
    9.7465   52.4056  133.7607 H   0  0  0  0  0  0  0  0  0  0  0  0
   12.0201   53.4295  135.2291 C   0  0  0  0  0  0  0  0  0  0  0  0
   10.7572   54.1884  135.7043 C   0  0  0  0  0  0  0  0  0  0  0  0
   11.8895   53.7819  136.6371 C   0  0  0  0  0  0  0  0  0  0  0  0
   12.8607   54.3095  134.3462 C   0  0  0  0  0  0  0  0  0  0  0  0
   12.8492   55.5561  134.6033 O   0  0  0  0  0  0  0  0  0  0  0  0
   13.6136   53.7590  133.2934 N   0  0  0  0  0  0  0  0  0  0  0  0
   13.5197   52.6973  133.1805 H   0  0  0  0  0  0  0  0  0  0  0  0
   14.4605   54.4187  132.3707 C   0  0  0  0  0  0  0  0  0  0  0  0
   14.2104   55.6480  131.8713 C   0  0  0  0  0  0  0  0  0  0  0  0
   15.0573   56.2850  130.9496 C   0  0  0  0  0  0  0  0  0  0  0  0
   16.1841   55.6297  130.5419 C   0  0  0  0  0  0  0  0  0  0  0  0
   17.0420   56.1885  129.6552 F   0  0  0  0  0  0  0  0  0  0  0  0
   16.4629   54.3640  131.0420 C   0  0  0  0  0  0  0  0  0  0  0  0
   15.6237   53.7791  131.9298 C   0  0  0  0  0  0  0  0  0  0  0  0
    9.2891   46.4449  132.4864 O   0  0  0  0  0  0  0  0  0  0  0  0
    7.6589   49.4110  130.2182 C   0  0  0  0  0  0  0  0  0  0  0  0
    8.2088   48.4010  130.9754 C   0  0  0  0  0  0  0  0  0  0  0  0
    8.4253   47.1603  130.4151 C   0  0  0  0  0  0  0  0  0  0  0  0
    8.9866   46.1256  131.1890 C   0  0  0  0  0  0  0  0  0  0  0  0
    9.2049   44.8892  130.6459 C   0  0  0  0  0  0  0  0  0  0  0  0
    8.8626   44.6683  129.3078 C   0  0  0  0  0  0  0  0  0  0  0  0
    8.3272   45.6407  128.5529 N   0  0  0  0  0  0  0  0  0  0  0  0
    8.1146   46.8676  129.1073 C   0  0  0  0  0  0  0  0  0  0  0  0
    7.5586   47.8904  128.3437 C   0  0  0  0  0  0  0  0  0  0  0  0
    7.3371   49.1316  128.8889 C   0  0  0  0  0  0  0  0  0  0  0  0
    6.0918   51.1737  130.8215 C   0  0  0  0  0  0  0  0  0  0  0  0
    7.4174   50.6892  130.7371 O   0  0  0  0  0  0  0  0  0  0  0  0
    6.7830   50.1389  128.1165 O   0  0  0  0  0  0  0  0  0  0  0  0
    7.4921   51.1884  127.5274 C   0  0  0  0  0  0  0  0  0  0  0  0
    6.7116   52.4686  127.8059 C   0  0  0  0  0  0  0  0  0  0  0  0
    7.4675   53.6766  127.3474 C   0  0  0  0  0  0  0  0  0  0  0  0
    7.1383   54.0948  126.0083 N   0  0  0  0  0  0  0  0  0  0  0  0
    6.5236   55.4144  126.0874 C   0  0  0  0  0  0  0  0  0  0  0  0
    7.6083   56.4022  125.7971 C   0  0  0  0  0  0  0  0  0  0  0  0
    8.8005   55.6356  125.3298 C   0  0  0  0  0  0  0  0  0  0  0  0
    8.2619   54.2325  125.1397 C   0  0  0  0  0  0  0  0  0  0  0  0
 37 38  1  0  0  0
 38 27  1  0  0  0
 27 28  2  0  0  0
 28 29  1  0  0  0
 29 30  2  0  0  0
 30 26  1  0  0  0
 26  1  1  0  0  0
  1  2  2  0  0  0
  2  3  1  0  0  0
  3  4  2  0  0  0
  4  8  1  0  0  0
  8  9  1  0  0  0
  9 10  2  0  0  0
  9 12  1  0  0  0
 12 13  1  0  0  0
 13 14  1  0  0  0
 12 15  1  0  0  0
 15 16  2  0  0  0
 15 17  1  0  0  0
 17 19  1  0  0  0
 19 20  2  0  0  0
 20 21  1  0  0  0
 21 22  2  0  0  0
 22 23  1  0  0  0
 22 24  1  0  0  0
 24 25  2  0  0  0
  4  5  1  0  0  0
  5  6  2  0  0  0
  6  7  1  0  0  0
 30 31  1  0  0  0
 31 32  2  0  0  0
 32 33  1  0  0  0
 33 34  2  0  0  0
 34 35  1  0  0  0
 35 36  2  0  0  0
 36 39  1  0  0  0
 39 40  1  0  0  0
 40 41  1  0  0  0
 41 42  1  0  0  0
 42 43  1  0  0  0
 43 44  1  0  0  0
 44 45  1  0  0  0
 45 46  1  0  0  0
 46 47  1  0  0  0
 36 27  1  0  0  0
 47 43  1  0  0  0
 34 29  1  0  0  0
  6  1  1  0  0  0
 14 12  1  0  0  0
 25 19  1  0  0  0
  8 11  1  0  0  0
 17 18  1  0  0  0
M  END
> <minimizedAffinity>
41.85520

> <CNNscore>
0.3233575225

> <CNNaffinity>
7.3948602676

> <CNN_VS>
2.3911836147

> <CNNaffinity_variance>
0.4427140355

$$$$
[H]c1nc2c([H])c(OC([H])([H])C([H])([H])C([H])([H])N3C([H])([H])C([H])([H])C([H])([H])C3([H])[H])c(OC([H])([H])[H])c([H])c2c(Oc2c([H])c([H])c(N([H])C(=O)C3(C(=O)N([H])c4c([H])c([H])c(F)c([H])c4[H])C([H])([H])C3([H])[H])c([H])c2F)c1[H]


 47 52  0  0  0  0  0  0  0  0999 V2000
    6.1990   48.8953  129.5266 C   0  0  0  0  0  0  0  0  0  0  0  0
    4.8132   48.8203  129.5657 C   0  0  0  0  0  0  0  0  0  0  0  0
    4.0300   49.8608  129.0415 C   0  0  0  0  0  0  0  0  0  0  0  0
    4.5866   50.9814  128.4771 C   0  0  0  0  0  0  0  0  0  0  0  0
    5.9871   51.0421  128.4438 C   0  0  0  0  0  0  0  0  0  0  0  0
    6.7487   50.0254  128.9547 C   0  0  0  0  0  0  0  0  0  0  0  0
    8.1148   50.1118  128.8747 F   0  0  0  0  0  0  0  0  0  0  0  0
    3.8532   52.0721  127.9664 N   0  0  0  0  0  0  0  0  0  0  0  0
    2.7814   51.9252  127.1000 C   0  0  0  0  0  0  0  0  0  0  0  0
    2.4273   50.7401  126.7570 O   0  0  0  0  0  0  0  0  0  0  0  0
    4.1954   53.0203  128.3114 H   0  0  0  0  0  0  0  0  0  0  0  0
    1.9484   52.9984  126.4881 C   0  0  0  0  0  0  0  0  0  0  0  0
    2.8526   54.0259  125.7647 C   0  0  0  0  0  0  0  0  0  0  0  0
    1.8446   53.1433  125.0417 C   0  0  0  0  0  0  0  0  0  0  0  0
    0.9396   53.7029  127.3520 C   0  0  0  0  0  0  0  0  0  0  0  0
    0.0131   52.9862  127.8505 O   0  0  0  0  0  0  0  0  0  0  0  0
    1.0351   55.0870  127.5829 N   0  0  0  0  0  0  0  0  0  0  0  0
    1.8556   55.5696  127.0901 H   0  0  0  0  0  0  0  0  0  0  0  0
    0.1936   55.9150  128.3638 C   0  0  0  0  0  0  0  0  0  0  0  0
    0.3958   57.2389  128.5353 C   0  0  0  0  0  0  0  0  0  0  0  0
   -0.4446   58.0447  129.3208 C   0  0  0  0  0  0  0  0  0  0  0  0
   -1.5141   57.4606  129.9376 C   0  0  0  0  0  0  0  0  0  0  0  0
   -2.3627   58.1815  130.7088 F   0  0  0  0  0  0  0  0  0  0  0  0
   -1.7430   56.1000  129.7758 C   0  0  0  0  0  0  0  0  0  0  0  0
   -0.9117   55.3527  129.0109 C   0  0  0  0  0  0  0  0  0  0  0  0
    6.9147   47.8439  130.0539 O   0  0  0  0  0  0  0  0  0  0  0  0
    9.5486   44.7395  129.8950 C   0  0  0  0  0  0  0  0  0  0  0  0
    8.6660   45.7945  129.9560 C   0  0  0  0  0  0  0  0  0  0  0  0
    8.9914   46.9234  130.6770 C   0  0  0  0  0  0  0  0  0  0  0  0
    8.0888   48.0031  130.7415 C   0  0  0  0  0  0  0  0  0  0  0  0
    8.3984   49.1285  131.4550 C   0  0  0  0  0  0  0  0  0  0  0  0
    9.6275   49.1909  132.1196 C   0  0  0  0  0  0  0  0  0  0  0  0
   10.5020   48.1735  132.0705 N   0  0  0  0  0  0  0  0  0  0  0  0
   10.1800   47.0581  131.3563 C   0  0  0  0  0  0  0  0  0  0  0  0
   11.0708   45.9900  131.2932 C   0  0  0  0  0  0  0  0  0  0  0  0
   10.7598   44.8588  130.5788 C   0  0  0  0  0  0  0  0  0  0  0  0
    9.7750   43.4111  127.8674 C   0  0  0  0  0  0  0  0  0  0  0  0
    9.2685   43.5696  129.1779 O   0  0  0  0  0  0  0  0  0  0  0  0
   11.6563   43.8045  130.5255 O   0  0  0  0  0  0  0  0  0  0  0  0
   11.6715   42.7118  131.3956 C   0  0  0  0  0  0  0  0  0  0  0  0
   12.5632   43.0895  132.5737 C   0  0  0  0  0  0  0  0  0  0  0  0
   11.9707   44.2133  133.3653 C   0  0  0  0  0  0  0  0  0  0  0  0
   10.9821   43.7907  134.3248 N   0  0  0  0  0  0  0  0  0  0  0  0
   10.5028   44.9745  135.0280 C   0  0  0  0  0  0  0  0  0  0  0  0
    9.2287   45.3762  134.3558 C   0  0  0  0  0  0  0  0  0  0  0  0
    8.8596   44.2868  133.4049 C   0  0  0  0  0  0  0  0  0  0  0  0
    9.8288   43.1756  133.7525 C   0  0  0  0  0  0  0  0  0  0  0  0
 37 38  1  0  0  0
 38 27  1  0  0  0
 27 28  2  0  0  0
 28 29  1  0  0  0
 29 30  2  0  0  0
 30 26  1  0  0  0
 26  1  1  0  0  0
  1  2  2  0  0  0
  2  3  1  0  0  0
  3  4  2  0  0  0
  4  8  1  0  0  0
  8  9  1  0  0  0
  9 10  2  0  0  0
  9 12  1  0  0  0
 12 13  1  0  0  0
 13 14  1  0  0  0
 12 15  1  0  0  0
 15 16  2  0  0  0
 15 17  1  0  0  0
 17 19  1  0  0  0
 19 20  2  0  0  0
 20 21  1  0  0  0
 21 22  2  0  0  0
 22 23  1  0  0  0
 22 24  1  0  0  0
 24 25  2  0  0  0
  4  5  1  0  0  0
  5  6  2  0  0  0
  6  7  1  0  0  0
 30 31  1  0  0  0
 31 32  2  0  0  0
 32 33  1  0  0  0
 33 34  2  0  0  0
 34 35  1  0  0  0
 35 36  2  0  0  0
 36 39  1  0  0  0
 39 40  1  0  0  0
 40 41  1  0  0  0
 41 42  1  0  0  0
 42 43  1  0  0  0
 43 44  1  0  0  0
 44 45  1  0  0  0
 45 46  1  0  0  0
 46 47  1  0  0  0
 36 27  1  0  0  0
 47 43  1  0  0  0
 34 29  1  0  0  0
  6  1  1  0  0  0
 14 12  1  0  0  0
 25 19  1  0  0  0
  8 11  1  0  0  0
 17 18  1  0  0  0
M  END
> <minimizedAffinity>
7.69090

> <CNNscore>
0.3125271797

> <CNNaffinity>
7.4745392799

> <CNN_VS>
2.3359966278

> <CNNaffinity_variance>
0.1588738412

$$$$
[H]c1nc2c([H])c(OC([H])([H])C([H])([H])C([H])([H])N3C([H])([H])C([H])([H])C([H])([H])C3([H])[H])c(OC([H])([H])[H])c([H])c2c(Oc2c([H])c([H])c(N([H])C(=O)C3(C(=O)N([H])c4c([H])c([H])c(F)c([H])c4[H])C([H])([H])C3([H])[H])c([H])c2F)c1[H]


 47 52  0  0  0  0  0  0  0  0999 V2000
    7.3112   49.9837  129.9238 C   0  0  0  0  0  0  0  0  0  0  0  0
    7.0792   51.2817  130.3583 C   0  0  0  0  0  0  0  0  0  0  0  0
    6.9554   52.3297  129.4326 C   0  0  0  0  0  0  0  0  0  0  0  0
    7.0571   52.1251  128.0792 C   0  0  0  0  0  0  0  0  0  0  0  0
    7.2903   50.8089  127.6556 C   0  0  0  0  0  0  0  0  0  0  0  0
    7.4095   49.7882  128.5605 C   0  0  0  0  0  0  0  0  0  0  0  0
    7.6075   48.5114  128.1018 F   0  0  0  0  0  0  0  0  0  0  0  0
    6.9761   53.1413  127.1049 N   0  0  0  0  0  0  0  0  0  0  0  0
    7.6828   54.3305  127.1903 C   0  0  0  0  0  0  0  0  0  0  0  0
    8.4611   54.5114  128.1948 O   0  0  0  0  0  0  0  0  0  0  0  0
    6.3252   52.9095  126.2940 H   0  0  0  0  0  0  0  0  0  0  0  0
    7.6635   55.4744  126.2356 C   0  0  0  0  0  0  0  0  0  0  0  0
    7.1690   56.7554  126.9506 C   0  0  0  0  0  0  0  0  0  0  0  0
    8.5749   56.6015  126.3871 C   0  0  0  0  0  0  0  0  0  0  0  0
    6.9544   55.2993  124.9215 C   0  0  0  0  0  0  0  0  0  0  0  0
    7.4457   55.9125  123.9200 O   0  0  0  0  0  0  0  0  0  0  0  0
    5.8058   54.4928  124.8284 N   0  0  0  0  0  0  0  0  0  0  0  0
    5.4930   54.0474  125.7518 H   0  0  0  0  0  0  0  0  0  0  0  0
    5.0154   54.2051  123.6899 C   0  0  0  0  0  0  0  0  0  0  0  0
    5.5260   53.9913  122.4584 C   0  0  0  0  0  0  0  0  0  0  0  0
    4.7264   53.7151  121.3373 C   0  0  0  0  0  0  0  0  0  0  0  0
    3.3718   53.6606  121.5027 C   0  0  0  0  0  0  0  0  0  0  0  0
    2.5450   53.3989  120.4623 F   0  0  0  0  0  0  0  0  0  0  0  0
    2.8231   53.8768  122.7605 C   0  0  0  0  0  0  0  0  0  0  0  0
    3.6242   54.1410  123.8202 C   0  0  0  0  0  0  0  0  0  0  0  0
    7.4216   48.9967  130.8775 O   0  0  0  0  0  0  0  0  0  0  0  0
    9.7148   45.7884  129.8536 C   0  0  0  0  0  0  0  0  0  0  0  0
    8.9474   46.8750  130.2087 C   0  0  0  0  0  0  0  0  0  0  0  0
    9.3387   47.6815  131.2558 C   0  0  0  0  0  0  0  0  0  0  0  0
    8.5538   48.7929  131.6212 C   0  0  0  0  0  0  0  0  0  0  0  0
    8.9297   49.6002  132.6596 C   0  0  0  0  0  0  0  0  0  0  0  0
   10.1079   49.3052  133.3533 C   0  0  0  0  0  0  0  0  0  0  0  0
   10.8703   48.2514  133.0210 N   0  0  0  0  0  0  0  0  0  0  0  0
   10.4833   47.4552  131.9846 C   0  0  0  0  0  0  0  0  0  0  0  0
   11.2576   46.3558  131.6238 C   0  0  0  0  0  0  0  0  0  0  0  0
   10.8798   45.5434  130.5826 C   0  0  0  0  0  0  0  0  0  0  0  0
    8.7525   43.6918  129.0755 C   0  0  0  0  0  0  0  0  0  0  0  0
    9.3637   44.9364  128.7989 O   0  0  0  0  0  0  0  0  0  0  0  0
   11.6605   44.4534  130.2356 O   0  0  0  0  0  0  0  0  0  0  0  0
   12.7646   43.9885  130.9541 C   0  0  0  0  0  0  0  0  0  0  0  0
   12.2349   43.0445  132.0284 C   0  0  0  0  0  0  0  0  0  0  0  0
   10.7912   42.7197  131.8026 C   0  0  0  0  0  0  0  0  0  0  0  0
   10.0332   42.5647  133.0183 N   0  0  0  0  0  0  0  0  0  0  0  0
   10.5764   43.4872  134.0079 C   0  0  0  0  0  0  0  0  0  0  0  0
    9.6990   44.6980  133.9810 C   0  0  0  0  0  0  0  0  0  0  0  0
    8.5156   44.3763  133.1303 C   0  0  0  0  0  0  0  0  0  0  0  0
    8.6483   42.8856  132.8955 C   0  0  0  0  0  0  0  0  0  0  0  0
 37 38  1  0  0  0
 38 27  1  0  0  0
 27 28  2  0  0  0
 28 29  1  0  0  0
 29 30  2  0  0  0
 30 26  1  0  0  0
 26  1  1  0  0  0
  1  2  2  0  0  0
  2  3  1  0  0  0
  3  4  2  0  0  0
  4  8  1  0  0  0
  8  9  1  0  0  0
  9 10  2  0  0  0
  9 12  1  0  0  0
 12 13  1  0  0  0
 13 14  1  0  0  0
 12 15  1  0  0  0
 15 16  2  0  0  0
 15 17  1  0  0  0
 17 19  1  0  0  0
 19 20  2  0  0  0
 20 21  1  0  0  0
 21 22  2  0  0  0
 22 23  1  0  0  0
 22 24  1  0  0  0
 24 25  2  0  0  0
  4  5  1  0  0  0
  5  6  2  0  0  0
  6  7  1  0  0  0
 30 31  1  0  0  0
 31 32  2  0  0  0
 32 33  1  0  0  0
 33 34  2  0  0  0
 34 35  1  0  0  0
 35 36  2  0  0  0
 36 39  1  0  0  0
 39 40  1  0  0  0
 40 41  1  0  0  0
 41 42  1  0  0  0
 42 43  1  0  0  0
 43 44  1  0  0  0
 44 45  1  0  0  0
 45 46  1  0  0  0
 46 47  1  0  0  0
 36 27  1  0  0  0
 47 43  1  0  0  0
 34 29  1  0  0  0
  6  1  1  0  0  0
 14 12  1  0  0  0
 25 19  1  0  0  0
  8 11  1  0  0  0
 17 18  1  0  0  0
M  END
> <minimizedAffinity>
0.70073

> <CNNscore>
0.3100468218

> <CNNaffinity>
7.6750688553

> <CNN_VS>
2.3796308041

> <CNNaffinity_variance>
0.5871886015

$$$$
[H]c1nc(S(=O)(=O)C([H])([H])[H])c([H])c([H])c1Oc1c(C2([H])N(C([H])([H])[H])C(=O)C([H])([H])C2([H])[H])c([H])c2c(c1[H])c([H])c(-c1c([H])c([H])c(F)c([H])c1[H])n2[H]


 35 39  0  0  0  0  0  0  0  0999 V2000
    9.7520   44.1972  131.3248 C   0  0  0  0  0  0  0  0  0  0  0  0
    9.6612   42.9047  130.8681 C   0  0  0  0  0  0  0  0  0  0  0  0
    9.8854   42.5888  129.5182 C   0  0  0  0  0  0  0  0  0  0  0  0
    9.8565   41.4163  128.8416 N   0  0  0  0  0  0  0  0  0  0  0  0
   10.1438   41.6247  127.5491 C   0  0  0  0  0  0  0  0  0  0  0  0
   10.3654   42.9695  127.3816 C   0  0  0  0  0  0  0  0  0  0  0  0
   10.2017   43.5552  128.6098 C   0  0  0  0  0  0  0  0  0  0  0  0
   10.2985   44.8628  129.0440 C   0  0  0  0  0  0  0  0  0  0  0  0
   10.0779   45.1729  130.3713 C   0  0  0  0  0  0  0  0  0  0  0  0
    9.6387   40.5018  129.2876 H   0  0  0  0  0  0  0  0  0  0  0  0
   11.2846   46.3376  133.4692 C   0  0  0  0  0  0  0  0  0  0  0  0
   10.7618   45.0080  133.4029 N   0  0  0  0  0  0  0  0  0  0  0  0
    9.5508   44.6050  132.7134 C   0  0  0  0  0  0  0  0  0  0  0  0
    9.0709   43.4352  133.5233 C   0  0  0  0  0  0  0  0  0  0  0  0
   10.2587   42.8155  134.1729 C   0  0  0  0  0  0  0  0  0  0  0  0
   11.3241   43.8536  133.9994 C   0  0  0  0  0  0  0  0  0  0  0  0
   12.5236   43.7260  134.3281 O   0  0  0  0  0  0  0  0  0  0  0  0
   10.2107   40.6052  126.4821 C   0  0  0  0  0  0  0  0  0  0  0  0
    9.0884   40.3436  125.7304 C   0  0  0  0  0  0  0  0  0  0  0  0
    9.0456   39.4095  124.7139 C   0  0  0  0  0  0  0  0  0  0  0  0
   10.2082   38.7156  124.4608 C   0  0  0  0  0  0  0  0  0  0  0  0
   10.1966   37.7865  123.4635 F   0  0  0  0  0  0  0  0  0  0  0  0
   11.3670   38.9554  125.2045 C   0  0  0  0  0  0  0  0  0  0  0  0
   11.3548   39.8986  126.2075 C   0  0  0  0  0  0  0  0  0  0  0  0
   10.1700   46.4661  130.7979 O   0  0  0  0  0  0  0  0  0  0  0  0
    9.3127   47.5008  130.5889 C   0  0  0  0  0  0  0  0  0  0  0  0
    9.5980   48.8320  130.8365 C   0  0  0  0  0  0  0  0  0  0  0  0
    8.6082   49.7822  130.5720 C   0  0  0  0  0  0  0  0  0  0  0  0
    7.3745   49.4393  130.0795 C   0  0  0  0  0  0  0  0  0  0  0  0
    7.1117   48.1349  129.8426 N   0  0  0  0  0  0  0  0  0  0  0  0
    8.0493   47.2074  130.0900 C   0  0  0  0  0  0  0  0  0  0  0  0
    6.1001   50.5884  129.7414 S   0  0  0  0  0  0  0  0  0  0  0  0
    6.7718   51.8622  128.6767 C   0  0  0  0  0  0  0  0  0  0  0  0
    4.9547   49.8985  129.0522 O   0  0  0  0  0  0  0  0  0  0  0  0
    5.5851   51.2360  130.9859 O   0  0  0  0  0  0  0  0  0  0  0  0
 11 12  1  0  0  0
 12 13  1  0  0  0
 13 14  1  0  0  0
 14 15  1  0  0  0
 15 16  1  0  0  0
 16 17  2  0  0  0
 13  1  1  0  0  0
  1  2  2  0  0  0
  2  3  1  0  0  0
  3  4  1  0  0  0
  4  5  1  0  0  0
  5  6  2  0  0  0
  6  7  1  0  0  0
  7  8  1  0  0  0
  8  9  2  0  0  0
  9 25  1  0  0  0
 25 26  1  0  0  0
 26 27  2  0  0  0
 27 28  1  0  0  0
 28 29  2  0  0  0
 29 30  1  0  0  0
 30 31  2  0  0  0
 29 32  1  0  0  0
 32 33  1  0  0  0
 32 34  2  0  0  0
 32 35  2  0  0  0
  5 18  1  0  0  0
 18 19  2  0  0  0
 19 20  1  0  0  0
 20 21  2  0  0  0
 21 22  1  0  0  0
 21 23  1  0  0  0
 23 24  2  0  0  0
 16 12  1  0  0  0
  9  1  1  0  0  0
 31 26  1  0  0  0
 24 18  1  0  0  0
  7  3  2  0  0  0
  4 10  1  0  0  0
M  END
> <minimizedAffinity>
15.32200

> <CNNscore>
0.4582180083

> <CNNaffinity>
7.8254599571

> <CNN_VS>
3.5857667923

> <CNNaffinity_variance>
0.9777921438

$$$$
[H]c1nc(S(=O)(=O)C([H])([H])[H])c([H])c([H])c1Oc1c(C2([H])N(C([H])([H])[H])C(=O)C([H])([H])C2([H])[H])c([H])c2c(c1[H])c([H])c(-c1c([H])c([H])c(F)c([H])c1[H])n2[H]


 35 39  0  0  0  0  0  0  0  0999 V2000
   11.0731   44.4388  131.0252 C   0  0  0  0  0  0  0  0  0  0  0  0
   12.0818   44.3953  131.9569 C   0  0  0  0  0  0  0  0  0  0  0  0
   12.3029   45.4603  132.8453 C   0  0  0  0  0  0  0  0  0  0  0  0
   13.2116   45.6485  133.8312 N   0  0  0  0  0  0  0  0  0  0  0  0
   13.0204   46.8420  134.4106 C   0  0  0  0  0  0  0  0  0  0  0  0
   11.9581   47.4456  133.7836 C   0  0  0  0  0  0  0  0  0  0  0  0
   11.5232   46.5785  132.8154 C   0  0  0  0  0  0  0  0  0  0  0  0
   10.5025   46.6468  131.8874 C   0  0  0  0  0  0  0  0  0  0  0  0
   10.2856   45.5995  131.0141 C   0  0  0  0  0  0  0  0  0  0  0  0
   13.9415   44.9498  134.0797 H   0  0  0  0  0  0  0  0  0  0  0  0
    8.8456   43.9963  128.5011 C   0  0  0  0  0  0  0  0  0  0  0  0
    9.3843   43.3267  129.6443 N   0  0  0  0  0  0  0  0  0  0  0  0
   10.7676   43.3680  130.0792 C   0  0  0  0  0  0  0  0  0  0  0  0
   10.9564   42.0338  130.7418 C   0  0  0  0  0  0  0  0  0  0  0  0
    9.6286   41.5852  131.2445 C   0  0  0  0  0  0  0  0  0  0  0  0
    8.6713   42.5029  130.5486 C   0  0  0  0  0  0  0  0  0  0  0  0
    7.4354   42.5399  130.7335 O   0  0  0  0  0  0  0  0  0  0  0  0
   13.8030   47.4220  135.5211 C   0  0  0  0  0  0  0  0  0  0  0  0
   13.3563   48.5722  136.1299 C   0  0  0  0  0  0  0  0  0  0  0  0
   14.0148   49.1947  137.1723 C   0  0  0  0  0  0  0  0  0  0  0  0
   15.1828   48.6074  137.6061 C   0  0  0  0  0  0  0  0  0  0  0  0
   15.8554   49.1993  138.6333 F   0  0  0  0  0  0  0  0  0  0  0  0
   15.6662   47.4388  137.0109 C   0  0  0  0  0  0  0  0  0  0  0  0
   14.9697   46.8590  135.9743 C   0  0  0  0  0  0  0  0  0  0  0  0
    9.2791   45.6702  130.0949 O   0  0  0  0  0  0  0  0  0  0  0  0
    8.3480   46.6452  129.9165 C   0  0  0  0  0  0  0  0  0  0  0  0
    7.0411   46.4325  129.5147 C   0  0  0  0  0  0  0  0  0  0  0  0
    6.2024   47.5411  129.3736 C   0  0  0  0  0  0  0  0  0  0  0  0
    6.6306   48.8213  129.6183 C   0  0  0  0  0  0  0  0  0  0  0  0
    7.9099   49.0122  130.0106 N   0  0  0  0  0  0  0  0  0  0  0  0
    8.7307   47.9602  130.1521 C   0  0  0  0  0  0  0  0  0  0  0  0
    5.6240   50.2412  129.4470 S   0  0  0  0  0  0  0  0  0  0  0  0
    6.5898   51.5088  128.6297 C   0  0  0  0  0  0  0  0  0  0  0  0
    4.4089   49.9143  128.6227 O   0  0  0  0  0  0  0  0  0  0  0  0
    5.1725   50.7707  130.7696 O   0  0  0  0  0  0  0  0  0  0  0  0
 11 12  1  0  0  0
 12 13  1  0  0  0
 13 14  1  0  0  0
 14 15  1  0  0  0
 15 16  1  0  0  0
 16 17  2  0  0  0
 13  1  1  0  0  0
  1  2  2  0  0  0
  2  3  1  0  0  0
  3  4  1  0  0  0
  4  5  1  0  0  0
  5  6  2  0  0  0
  6  7  1  0  0  0
  7  8  1  0  0  0
  8  9  2  0  0  0
  9 25  1  0  0  0
 25 26  1  0  0  0
 26 27  2  0  0  0
 27 28  1  0  0  0
 28 29  2  0  0  0
 29 30  1  0  0  0
 30 31  2  0  0  0
 29 32  1  0  0  0
 32 33  1  0  0  0
 32 34  2  0  0  0
 32 35  2  0  0  0
  5 18  1  0  0  0
 18 19  2  0  0  0
 19 20  1  0  0  0
 20 21  2  0  0  0
 21 22  1  0  0  0
 21 23  1  0  0  0
 23 24  2  0  0  0
 16 12  1  0  0  0
  9  1  1  0  0  0
 31 26  1  0  0  0
 24 18  1  0  0  0
  7  3  2  0  0  0
  4 10  1  0  0  0
M  END
> <minimizedAffinity>
15.96914

> <CNNscore>
0.4434752464

> <CNNaffinity>
7.7233824730

> <CNN_VS>
3.4251289368

> <CNNaffinity_variance>
1.5886986256

$$$$
[H]c1nc(S(=O)(=O)C([H])([H])[H])c([H])c([H])c1Oc1c(C2([H])N(C([H])([H])[H])C(=O)C([H])([H])C2([H])[H])c([H])c2c(c1[H])c([H])c(-c1c([H])c([H])c(F)c([H])c1[H])n2[H]


 35 39  0  0  0  0  0  0  0  0999 V2000
    8.7208   46.3218  131.2235 C   0  0  0  0  0  0  0  0  0  0  0  0
    9.7765   45.8896  131.9891 C   0  0  0  0  0  0  0  0  0  0  0  0
   10.4641   46.7639  132.8464 C   0  0  0  0  0  0  0  0  0  0  0  0
   11.5120   46.5796  133.6839 N   0  0  0  0  0  0  0  0  0  0  0  0
   11.8152   47.7303  134.3005 C   0  0  0  0  0  0  0  0  0  0  0  0
   10.9402   48.6886  133.8512 C   0  0  0  0  0  0  0  0  0  0  0  0
   10.1086   48.0762  132.9503 C   0  0  0  0  0  0  0  0  0  0  0  0
    9.0506   48.5356  132.1904 C   0  0  0  0  0  0  0  0  0  0  0  0
    8.3749   47.6755  131.3476 C   0  0  0  0  0  0  0  0  0  0  0  0
   11.9924   45.6651  133.8088 H   0  0  0  0  0  0  0  0  0  0  0  0
    7.7985   43.0547  131.1631 C   0  0  0  0  0  0  0  0  0  0  0  0
    8.3389   44.0775  130.3221 N   0  0  0  0  0  0  0  0  0  0  0  0
    7.9446   45.4735  130.3221 C   0  0  0  0  0  0  0  0  0  0  0  0
    8.1786   45.8936  128.8996 C   0  0  0  0  0  0  0  0  0  0  0  0
    9.2500   45.0239  128.3403 C   0  0  0  0  0  0  0  0  0  0  0  0
    9.3451   43.9126  129.3397 C   0  0  0  0  0  0  0  0  0  0  0  0
   10.1802   42.9825  129.3151 O   0  0  0  0  0  0  0  0  0  0  0  0
   12.8945   47.9487  135.2853 C   0  0  0  0  0  0  0  0  0  0  0  0
   13.9843   47.1087  135.2863 C   0  0  0  0  0  0  0  0  0  0  0  0
   15.0429   47.2254  136.1657 C   0  0  0  0  0  0  0  0  0  0  0  0
   14.9763   48.2510  137.0828 C   0  0  0  0  0  0  0  0  0  0  0  0
   16.0065   48.3912  137.9643 F   0  0  0  0  0  0  0  0  0  0  0  0
   13.8845   49.1232  137.1105 C   0  0  0  0  0  0  0  0  0  0  0  0
   12.8554   48.9618  136.2103 C   0  0  0  0  0  0  0  0  0  0  0  0
    7.3322   48.1319  130.5943 O   0  0  0  0  0  0  0  0  0  0  0  0
    7.2665   49.2332  129.7993 C   0  0  0  0  0  0  0  0  0  0  0  0
    7.4913   49.2427  128.4340 C   0  0  0  0  0  0  0  0  0  0  0  0
    7.3884   50.4589  127.7539 C   0  0  0  0  0  0  0  0  0  0  0  0
    7.0748   51.6323  128.3917 C   0  0  0  0  0  0  0  0  0  0  0  0
    6.8576   51.6062  129.7255 N   0  0  0  0  0  0  0  0  0  0  0  0
    6.9515   50.4479  130.3964 C   0  0  0  0  0  0  0  0  0  0  0  0
    6.9437   53.1802  127.5881 S   0  0  0  0  0  0  0  0  0  0  0  0
    7.9989   53.1438  126.1415 C   0  0  0  0  0  0  0  0  0  0  0  0
    5.5185   53.4261  127.1743 O   0  0  0  0  0  0  0  0  0  0  0  0
    7.3845   54.3063  128.4661 O   0  0  0  0  0  0  0  0  0  0  0  0
 11 12  1  0  0  0
 12 13  1  0  0  0
 13 14  1  0  0  0
 14 15  1  0  0  0
 15 16  1  0  0  0
 16 17  2  0  0  0
 13  1  1  0  0  0
  1  2  2  0  0  0
  2  3  1  0  0  0
  3  4  1  0  0  0
  4  5  1  0  0  0
  5  6  2  0  0  0
  6  7  1  0  0  0
  7  8  1  0  0  0
  8  9  2  0  0  0
  9 25  1  0  0  0
 25 26  1  0  0  0
 26 27  2  0  0  0
 27 28  1  0  0  0
 28 29  2  0  0  0
 29 30  1  0  0  0
 30 31  2  0  0  0
 29 32  1  0  0  0
 32 33  1  0  0  0
 32 34  2  0  0  0
 32 35  2  0  0  0
  5 18  1  0  0  0
 18 19  2  0  0  0
 19 20  1  0  0  0
 20 21  2  0  0  0
 21 22  1  0  0  0
 21 23  1  0  0  0
 23 24  2  0  0  0
 16 12  1  0  0  0
  9  1  1  0  0  0
 31 26  1  0  0  0
 24 18  1  0  0  0
  7  3  2  0  0  0
  4 10  1  0  0  0
M  END
> <minimizedAffinity>
17.45946

> <CNNscore>
0.3965494037

> <CNNaffinity>
7.2859907150

> <CNN_VS>
2.8892552853

> <CNNaffinity_variance>
0.9633852839

$$$$
[H]c1nc(S(=O)(=O)C([H])([H])[H])c([H])c([H])c1Oc1c(C2([H])N(C([H])([H])[H])C(=O)C([H])([H])C2([H])[H])c([H])c2c(c1[H])c([H])c(-c1c([H])c([H])c(F)c([H])c1[H])n2[H]


 35 39  0  0  0  0  0  0  0  0999 V2000
    8.8643   45.1479  129.6634 C   0  0  0  0  0  0  0  0  0  0  0  0
    8.9969   46.1843  128.7713 C   0  0  0  0  0  0  0  0  0  0  0  0
    8.3649   47.4198  128.9868 C   0  0  0  0  0  0  0  0  0  0  0  0
    8.3453   48.5685  128.2702 N   0  0  0  0  0  0  0  0  0  0  0  0
    7.5915   49.4854  128.8928 C   0  0  0  0  0  0  0  0  0  0  0  0
    7.1082   48.9166  130.0455 C   0  0  0  0  0  0  0  0  0  0  0  0
    7.5950   47.6363  130.0912 C   0  0  0  0  0  0  0  0  0  0  0  0
    7.4455   46.6097  131.0031 C   0  0  0  0  0  0  0  0  0  0  0  0
    8.0670   45.3951  130.7907 C   0  0  0  0  0  0  0  0  0  0  0  0
    8.8515   48.6914  127.3695 H   0  0  0  0  0  0  0  0  0  0  0  0
   11.4410   43.5301  131.1705 C   0  0  0  0  0  0  0  0  0  0  0  0
   10.9083   43.8163  129.8744 N   0  0  0  0  0  0  0  0  0  0  0  0
    9.5015   43.8409  129.5209 C   0  0  0  0  0  0  0  0  0  0  0  0
    9.5061   43.4313  128.0763 C   0  0  0  0  0  0  0  0  0  0  0  0
   10.8216   43.8217  127.4984 C   0  0  0  0  0  0  0  0  0  0  0  0
   11.6522   44.1192  128.7085 C   0  0  0  0  0  0  0  0  0  0  0  0
   12.8202   44.5652  128.6966 O   0  0  0  0  0  0  0  0  0  0  0  0
    7.3156   50.8626  128.4352 C   0  0  0  0  0  0  0  0  0  0  0  0
    7.5774   51.2022  127.1277 C   0  0  0  0  0  0  0  0  0  0  0  0
    7.3582   52.4606  126.6026 C   0  0  0  0  0  0  0  0  0  0  0  0
    6.8473   53.4096  127.4604 C   0  0  0  0  0  0  0  0  0  0  0  0
    6.6207   54.6613  126.9708 F   0  0  0  0  0  0  0  0  0  0  0  0
    6.5694   53.0998  128.7947 C   0  0  0  0  0  0  0  0  0  0  0  0
    6.8069   51.8285  129.2669 C   0  0  0  0  0  0  0  0  0  0  0  0
    7.9150   44.3804  131.6908 O   0  0  0  0  0  0  0  0  0  0  0  0
    8.7169   44.0307  132.7320 C   0  0  0  0  0  0  0  0  0  0  0  0
    8.8583   42.7477  133.2305 C   0  0  0  0  0  0  0  0  0  0  0  0
    9.7221   42.5478  134.3104 C   0  0  0  0  0  0  0  0  0  0  0  0
   10.4270   43.5742  134.8862 C   0  0  0  0  0  0  0  0  0  0  0  0
   10.2782   44.8215  134.3873 N   0  0  0  0  0  0  0  0  0  0  0  0
    9.4535   45.0337  133.3504 C   0  0  0  0  0  0  0  0  0  0  0  0
   11.5119   43.3778  136.2439 S   0  0  0  0  0  0  0  0  0  0  0  0
   13.1827   43.6550  135.6616 C   0  0  0  0  0  0  0  0  0  0  0  0
   11.1746   44.3730  137.3203 O   0  0  0  0  0  0  0  0  0  0  0  0
   11.4367   42.0037  136.8268 O   0  0  0  0  0  0  0  0  0  0  0  0
 11 12  1  0  0  0
 12 13  1  0  0  0
 13 14  1  0  0  0
 14 15  1  0  0  0
 15 16  1  0  0  0
 16 17  2  0  0  0
 13  1  1  0  0  0
  1  2  2  0  0  0
  2  3  1  0  0  0
  3  4  1  0  0  0
  4  5  1  0  0  0
  5  6  2  0  0  0
  6  7  1  0  0  0
  7  8  1  0  0  0
  8  9  2  0  0  0
  9 25  1  0  0  0
 25 26  1  0  0  0
 26 27  2  0  0  0
 27 28  1  0  0  0
 28 29  2  0  0  0
 29 30  1  0  0  0
 30 31  2  0  0  0
 29 32  1  0  0  0
 32 33  1  0  0  0
 32 34  2  0  0  0
 32 35  2  0  0  0
  5 18  1  0  0  0
 18 19  2  0  0  0
 19 20  1  0  0  0
 20 21  2  0  0  0
 21 22  1  0  0  0
 21 23  1  0  0  0
 23 24  2  0  0  0
 16 12  1  0  0  0
  9  1  1  0  0  0
 31 26  1  0  0  0
 24 18  1  0  0  0
  7  3  2  0  0  0
  4 10  1  0  0  0
M  END
> <minimizedAffinity>
18.08613

> <CNNscore>
0.2677735388

> <CNNaffinity>
7.1265459061

> <CNN_VS>
1.9083003998

> <CNNaffinity_variance>
0.3202800155

$$$$
[H]c1nc(S(=O)(=O)C([H])([H])[H])c([H])c([H])c1Oc1c(C2([H])N(C([H])([H])[H])C(=O)C([H])([H])C2([H])[H])c([H])c2c(c1[H])c([H])c(-c1c([H])c([H])c(F)c([H])c1[H])n2[H]


 35 39  0  0  0  0  0  0  0  0999 V2000
    9.4734   44.0170  131.6496 C   0  0  0  0  0  0  0  0  0  0  0  0
    9.3838   45.3557  131.9451 C   0  0  0  0  0  0  0  0  0  0  0  0
    8.7791   46.2613  131.0583 C   0  0  0  0  0  0  0  0  0  0  0  0
    8.5731   47.5980  131.1235 N   0  0  0  0  0  0  0  0  0  0  0  0
    7.9436   48.0202  130.0181 C   0  0  0  0  0  0  0  0  0  0  0  0
    7.7350   46.9277  129.2127 C   0  0  0  0  0  0  0  0  0  0  0  0
    8.2579   45.8443  129.8693 C   0  0  0  0  0  0  0  0  0  0  0  0
    8.3358   44.5031  129.5486 C   0  0  0  0  0  0  0  0  0  0  0  0
    8.9306   43.6131  130.4208 C   0  0  0  0  0  0  0  0  0  0  0  0
    8.8724   48.1859  131.9282 H   0  0  0  0  0  0  0  0  0  0  0  0
   10.1074   43.7635  134.9756 C   0  0  0  0  0  0  0  0  0  0  0  0
   10.7228   43.5483  133.7026 N   0  0  0  0  0  0  0  0  0  0  0  0
   10.0704   43.0101  132.5239 C   0  0  0  0  0  0  0  0  0  0  0  0
   11.1878   42.3099  131.8058 C   0  0  0  0  0  0  0  0  0  0  0  0
   12.4611   42.9839  132.1818 C   0  0  0  0  0  0  0  0  0  0  0  0
   12.0723   43.8137  133.3663 C   0  0  0  0  0  0  0  0  0  0  0  0
   12.8185   44.6165  133.9678 O   0  0  0  0  0  0  0  0  0  0  0  0
    7.5424   49.4067  129.7034 C   0  0  0  0  0  0  0  0  0  0  0  0
    7.5828   49.8387  128.3976 C   0  0  0  0  0  0  0  0  0  0  0  0
    7.2319   51.1138  127.9996 C   0  0  0  0  0  0  0  0  0  0  0  0
    6.8218   51.9808  128.9883 C   0  0  0  0  0  0  0  0  0  0  0  0
    6.4695   53.2467  128.6260 F   0  0  0  0  0  0  0  0  0  0  0  0
    6.7685   51.5759  130.3251 C   0  0  0  0  0  0  0  0  0  0  0  0
    7.1296   50.2922  130.6673 C   0  0  0  0  0  0  0  0  0  0  0  0
    9.0105   42.2888  130.1006 O   0  0  0  0  0  0  0  0  0  0  0  0
    9.6234   41.6988  129.0396 C   0  0  0  0  0  0  0  0  0  0  0  0
   10.1422   42.3705  127.9468 C   0  0  0  0  0  0  0  0  0  0  0  0
   10.7421   41.6209  126.9317 C   0  0  0  0  0  0  0  0  0  0  0  0
   10.8313   40.2529  126.9844 C   0  0  0  0  0  0  0  0  0  0  0  0
   10.3202   39.6117  128.0588 N   0  0  0  0  0  0  0  0  0  0  0  0
    9.7403   40.3141  129.0442 C   0  0  0  0  0  0  0  0  0  0  0  0
   11.5628   39.2695  125.7367 S   0  0  0  0  0  0  0  0  0  0  0  0
   12.4508   37.9342  126.5343 C   0  0  0  0  0  0  0  0  0  0  0  0
   10.4985   38.7075  124.8344 O   0  0  0  0  0  0  0  0  0  0  0  0
   12.5290   40.0483  124.9041 O   0  0  0  0  0  0  0  0  0  0  0  0
 11 12  1  0  0  0
 12 13  1  0  0  0
 13 14  1  0  0  0
 14 15  1  0  0  0
 15 16  1  0  0  0
 16 17  2  0  0  0
 13  1  1  0  0  0
  1  2  2  0  0  0
  2  3  1  0  0  0
  3  4  1  0  0  0
  4  5  1  0  0  0
  5  6  2  0  0  0
  6  7  1  0  0  0
  7  8  1  0  0  0
  8  9  2  0  0  0
  9 25  1  0  0  0
 25 26  1  0  0  0
 26 27  2  0  0  0
 27 28  1  0  0  0
 28 29  2  0  0  0
 29 30  1  0  0  0
 30 31  2  0  0  0
 29 32  1  0  0  0
 32 33  1  0  0  0
 32 34  2  0  0  0
 32 35  2  0  0  0
  5 18  1  0  0  0
 18 19  2  0  0  0
 19 20  1  0  0  0
 20 21  2  0  0  0
 21 22  1  0  0  0
 21 23  1  0  0  0
 23 24  2  0  0  0
 16 12  1  0  0  0
  9  1  1  0  0  0
 31 26  1  0  0  0
 24 18  1  0  0  0
  7  3  2  0  0  0
  4 10  1  0  0  0
M  END
> <minimizedAffinity>
19.93096

> <CNNscore>
0.1322636753

> <CNNaffinity>
6.9092497826

> <CNN_VS>
0.9138427973

> <CNNaffinity_variance>
0.2813314795

$$$$
[H]c1nc(S(=O)(=O)C([H])([H])[H])c([H])c([H])c1Oc1c(C2([H])N(C([H])([H])[H])C(=O)C([H])([H])C2([H])[H])c([H])c2c(c1[H])c([H])c(-c1c([H])c([H])c(F)c([H])c1[H])n2[H]


 35 39  0  0  0  0  0  0  0  0999 V2000
    8.0976   47.5894  130.5200 C   0  0  0  0  0  0  0  0  0  0  0  0
    7.1288   47.6692  129.5491 C   0  0  0  0  0  0  0  0  0  0  0  0
    6.4010   48.8515  129.3380 C   0  0  0  0  0  0  0  0  0  0  0  0
    5.4190   49.1710  128.4622 N   0  0  0  0  0  0  0  0  0  0  0  0
    5.0340   50.4415  128.6471 C   0  0  0  0  0  0  0  0  0  0  0  0
    5.7867   50.9616  129.6712 C   0  0  0  0  0  0  0  0  0  0  0  0
    6.6295   49.9655  130.0905 C   0  0  0  0  0  0  0  0  0  0  0  0
    7.5982   49.9107  131.0735 C   0  0  0  0  0  0  0  0  0  0  0  0
    8.3135   48.7479  131.2807 C   0  0  0  0  0  0  0  0  0  0  0  0
    5.0382   48.5049  127.7594 H   0  0  0  0  0  0  0  0  0  0  0  0
   10.7001   46.0328  128.9926 C   0  0  0  0  0  0  0  0  0  0  0  0
    9.4382   45.7555  129.6060 N   0  0  0  0  0  0  0  0  0  0  0  0
    8.9087   46.4046  130.7904 C   0  0  0  0  0  0  0  0  0  0  0  0
    8.0574   45.3357  131.4129 C   0  0  0  0  0  0  0  0  0  0  0  0
    7.6008   44.4283  130.3242 C   0  0  0  0  0  0  0  0  0  0  0  0
    8.4868   44.7995  129.1752 C   0  0  0  0  0  0  0  0  0  0  0  0
    8.4037   44.3402  128.0154 O   0  0  0  0  0  0  0  0  0  0  0  0
    3.9882   51.1670  127.8975 C   0  0  0  0  0  0  0  0  0  0  0  0
    4.2960   52.3720  127.3087 C   0  0  0  0  0  0  0  0  0  0  0  0
    3.3913   53.1288  126.5902 C   0  0  0  0  0  0  0  0  0  0  0  0
    2.1154   52.6230  126.4729 C   0  0  0  0  0  0  0  0  0  0  0  0
    1.2000   53.3480  125.7698 F   0  0  0  0  0  0  0  0  0  0  0  0
    1.7676   51.4023  127.0579 C   0  0  0  0  0  0  0  0  0  0  0  0
    2.7091   50.6877  127.7640 C   0  0  0  0  0  0  0  0  0  0  0  0
    9.2675   48.6941  132.2553 O   0  0  0  0  0  0  0  0  0  0  0  0
    9.8533   47.6056  132.8223 C   0  0  0  0  0  0  0  0  0  0  0  0
    9.3626   46.9198  133.9194 C   0  0  0  0  0  0  0  0  0  0  0  0
   10.0824   45.8179  134.3884 C   0  0  0  0  0  0  0  0  0  0  0  0
   11.2493   45.3993  133.8008 C   0  0  0  0  0  0  0  0  0  0  0  0
   11.7150   46.0795  132.7296 N   0  0  0  0  0  0  0  0  0  0  0  0
   11.0379   47.1403  132.2642 C   0  0  0  0  0  0  0  0  0  0  0  0
   12.1912   44.0339  134.3551 S   0  0  0  0  0  0  0  0  0  0  0  0
   12.2908   42.8499  133.0151 C   0  0  0  0  0  0  0  0  0  0  0  0
   13.5732   44.4851  134.7415 O   0  0  0  0  0  0  0  0  0  0  0  0
   11.5639   43.3621  135.5334 O   0  0  0  0  0  0  0  0  0  0  0  0
 11 12  1  0  0  0
 12 13  1  0  0  0
 13 14  1  0  0  0
 14 15  1  0  0  0
 15 16  1  0  0  0
 16 17  2  0  0  0
 13  1  1  0  0  0
  1  2  2  0  0  0
  2  3  1  0  0  0
  3  4  1  0  0  0
  4  5  1  0  0  0
  5  6  2  0  0  0
  6  7  1  0  0  0
  7  8  1  0  0  0
  8  9  2  0  0  0
  9 25  1  0  0  0
 25 26  1  0  0  0
 26 27  2  0  0  0
 27 28  1  0  0  0
 28 29  2  0  0  0
 29 30  1  0  0  0
 30 31  2  0  0  0
 29 32  1  0  0  0
 32 33  1  0  0  0
 32 34  2  0  0  0
 32 35  2  0  0  0
  5 18  1  0  0  0
 18 19  2  0  0  0
 19 20  1  0  0  0
 20 21  2  0  0  0
 21 22  1  0  0  0
 21 23  1  0  0  0
 23 24  2  0  0  0
 16 12  1  0  0  0
  9  1  1  0  0  0
 31 26  1  0  0  0
 24 18  1  0  0  0
  7  3  2  0  0  0
  4 10  1  0  0  0
M  END
> <minimizedAffinity>
16.22833

> <CNNscore>
0.1180835068

> <CNNaffinity>
7.2291212082

> <CNN_VS>
0.8536399603

> <CNNaffinity_variance>
0.4653598666

$$$$
[H]c1nc(S(=O)(=O)C([H])([H])[H])c([H])c([H])c1Oc1c(C2([H])N(C([H])([H])[H])C(=O)C([H])([H])C2([H])[H])c([H])c2c(c1[H])c([H])c(-c1c([H])c([H])c(F)c([H])c1[H])n2[H]


 35 39  0  0  0  0  0  0  0  0999 V2000
    8.2330   46.1757  130.8594 C   0  0  0  0  0  0  0  0  0  0  0  0
    7.0296   46.2689  131.5156 C   0  0  0  0  0  0  0  0  0  0  0  0
    6.7838   45.5514  132.6976 C   0  0  0  0  0  0  0  0  0  0  0  0
    5.7031   45.4798  133.5101 N   0  0  0  0  0  0  0  0  0  0  0  0
    5.9509   44.6485  134.5319 C   0  0  0  0  0  0  0  0  0  0  0  0
    7.2278   44.1668  134.3788 C   0  0  0  0  0  0  0  0  0  0  0  0
    7.7324   44.7342  133.2379 C   0  0  0  0  0  0  0  0  0  0  0  0
    8.9506   44.6229  132.5966 C   0  0  0  0  0  0  0  0  0  0  0  0
    9.1916   45.3286  131.4345 C   0  0  0  0  0  0  0  0  0  0  0  0
    4.8214   46.0053  133.3395 H   0  0  0  0  0  0  0  0  0  0  0  0
    9.4091   49.2756  130.1273 C   0  0  0  0  0  0  0  0  0  0  0  0
    8.4054   48.3392  129.7257 N   0  0  0  0  0  0  0  0  0  0  0  0
    8.5724   46.9009  129.6372 C   0  0  0  0  0  0  0  0  0  0  0  0
    7.6266   46.5152  128.5367 C   0  0  0  0  0  0  0  0  0  0  0  0
    6.5365   47.5288  128.4996 C   0  0  0  0  0  0  0  0  0  0  0  0
    7.0783   48.6448  129.3385 C   0  0  0  0  0  0  0  0  0  0  0  0
    6.4599   49.6856  129.6508 O   0  0  0  0  0  0  0  0  0  0  0  0
    5.0284   44.2982  135.6312 C   0  0  0  0  0  0  0  0  0  0  0  0
    3.8078   44.9283  135.7116 C   0  0  0  0  0  0  0  0  0  0  0  0
    2.8768   44.6754  136.6999 C   0  0  0  0  0  0  0  0  0  0  0  0
    3.2173   43.7335  137.6456 C   0  0  0  0  0  0  0  0  0  0  0  0
    2.3186   43.4628  138.6340 F   0  0  0  0  0  0  0  0  0  0  0  0
    4.4485   43.0739  137.5949 C   0  0  0  0  0  0  0  0  0  0  0  0
    5.3405   43.3642  136.5871 C   0  0  0  0  0  0  0  0  0  0  0  0
   10.3946   45.2144  130.7998 O   0  0  0  0  0  0  0  0  0  0  0  0
   10.8035   45.7754  129.6305 C   0  0  0  0  0  0  0  0  0  0  0  0
   11.1606   45.0722  128.4935 C   0  0  0  0  0  0  0  0  0  0  0  0
   11.5631   45.7941  127.3669 C   0  0  0  0  0  0  0  0  0  0  0  0
   11.6150   47.1650  127.3535 C   0  0  0  0  0  0  0  0  0  0  0  0
   11.2625   47.8371  128.4720 N   0  0  0  0  0  0  0  0  0  0  0  0
   10.8729   47.1617  129.5640 C   0  0  0  0  0  0  0  0  0  0  0  0
   12.1205   48.1134  125.9738 S   0  0  0  0  0  0  0  0  0  0  0  0
   11.4259   49.7552  126.1466 C   0  0  0  0  0  0  0  0  0  0  0  0
   13.6217   48.1964  125.9285 O   0  0  0  0  0  0  0  0  0  0  0  0
   11.6378   47.5296  124.6856 O   0  0  0  0  0  0  0  0  0  0  0  0
 11 12  1  0  0  0
 12 13  1  0  0  0
 13 14  1  0  0  0
 14 15  1  0  0  0
 15 16  1  0  0  0
 16 17  2  0  0  0
 13  1  1  0  0  0
  1  2  2  0  0  0
  2  3  1  0  0  0
  3  4  1  0  0  0
  4  5  1  0  0  0
  5  6  2  0  0  0
  6  7  1  0  0  0
  7  8  1  0  0  0
  8  9  2  0  0  0
  9 25  1  0  0  0
 25 26  1  0  0  0
 26 27  2  0  0  0
 27 28  1  0  0  0
 28 29  2  0  0  0
 29 30  1  0  0  0
 30 31  2  0  0  0
 29 32  1  0  0  0
 32 33  1  0  0  0
 32 34  2  0  0  0
 32 35  2  0  0  0
  5 18  1  0  0  0
 18 19  2  0  0  0
 19 20  1  0  0  0
 20 21  2  0  0  0
 21 22  1  0  0  0
 21 23  1  0  0  0
 23 24  2  0  0  0
 16 12  1  0  0  0
  9  1  1  0  0  0
 31 26  1  0  0  0
 24 18  1  0  0  0
  7  3  2  0  0  0
  4 10  1  0  0  0
M  END
> <minimizedAffinity>
76.99697

> <CNNscore>
0.0607046559

> <CNNaffinity>
6.4364380836

> <CNN_VS>
0.3907217681

> <CNNaffinity_variance>
0.2730132043

$$$$
[H]ON([H])C(=O)C([H])([H])N(C([H])([H])c1c([H])c([H])c([N+](=O)[O-])c([H])c1[H])S(=O)(=O)c1c([H])c([H])c(OC([H])([H])[H])c([H])c1[H]


 29 30  0  0  0  0  0  0  0  0999 V2000
    8.1912   48.9899  130.8930 N   0  0  0  0  0  0  0  0  0  0  0  0
    9.6218   48.9107  131.8303 S   0  0  0  0  0  0  0  0  0  0  0  0
    9.5462   49.8668  132.9765 O   0  0  0  0  0  0  0  0  0  0  0  0
   10.7604   49.3842  130.9477 O   0  0  0  0  0  0  0  0  0  0  0  0
   10.5012   44.7917  133.4463 C   0  0  0  0  0  0  0  0  0  0  0  0
    9.3739   45.4824  133.8363 C   0  0  0  0  0  0  0  0  0  0  0  0
    9.0825   46.7442  133.3562 C   0  0  0  0  0  0  0  0  0  0  0  0
    9.9385   47.3350  132.4617 C   0  0  0  0  0  0  0  0  0  0  0  0
   11.0668   46.6577  132.0638 C   0  0  0  0  0  0  0  0  0  0  0  0
   11.3611   45.3870  132.5468 C   0  0  0  0  0  0  0  0  0  0  0  0
   10.0150   42.4175  133.4535 C   0  0  0  0  0  0  0  0  0  0  0  0
   10.7718   43.5043  133.9541 O   0  0  0  0  0  0  0  0  0  0  0  0
    7.4211   50.1696  131.1214 C   0  0  0  0  0  0  0  0  0  0  0  0
    6.7207   50.6459  129.8999 C   0  0  0  0  0  0  0  0  0  0  0  0
    5.6288   50.1501  129.5142 O   0  0  0  0  0  0  0  0  0  0  0  0
    7.2882   51.6891  129.1372 N   0  0  0  0  0  0  0  0  0  0  0  0
    6.6629   52.1359  128.0203 O   0  0  0  0  0  0  0  0  0  0  0  0
    8.1880   52.1040  129.4473 H   0  0  0  0  0  0  0  0  0  0  0  0
    7.3666   52.4636  127.3972 H   0  0  0  0  0  0  0  0  0  0  0  0
    8.3655   48.6381  129.5180 C   0  0  0  0  0  0  0  0  0  0  0  0
    8.6412   47.1832  129.3942 C   0  0  0  0  0  0  0  0  0  0  0  0
    7.7271   46.2576  129.8997 C   0  0  0  0  0  0  0  0  0  0  0  0
    8.0027   44.9202  129.7757 C   0  0  0  0  0  0  0  0  0  0  0  0
    9.1484   44.4345  129.1713 C   0  0  0  0  0  0  0  0  0  0  0  0
   10.0515   45.3652  128.6717 C   0  0  0  0  0  0  0  0  0  0  0  0
    9.7875   46.7122  128.7892 C   0  0  0  0  0  0  0  0  0  0  0  0
    9.4144   43.0454  129.0534 N   0  0  0  0  0  0  0  0  0  0  0  0
    9.0747   42.2096  130.0868 O   0  0  0  0  0  0  0  0  0  0  0  0
    9.9491   42.6145  128.0179 O   0  0  0  0  0  0  0  0  0  0  0  0
 11 12  1  0  0  0
 12  5  1  0  0  0
  5  6  2  0  0  0
  6  7  1  0  0  0
  7  8  2  0  0  0
  8  9  1  0  0  0
  9 10  2  0  0  0
  8  2  1  0  0  0
  2  3  2  0  0  0
  2  4  2  0  0  0
  2  1  1  0  0  0
  1 13  1  0  0  0
 13 14  1  0  0  0
 14 15  2  0  0  0
 14 16  1  0  0  0
 16 17  1  0  0  0
  1 20  1  0  0  0
 20 21  1  0  0  0
 21 22  2  0  0  0
 22 23  1  0  0  0
 23 24  2  0  0  0
 24 25  1  0  0  0
 25 26  2  0  0  0
 24 27  1  0  0  0
 27 28  1  0  0  0
 27 29  2  0  0  0
 10  5  1  0  0  0
 26 21  1  0  0  0
 16 18  1  0  0  0
 17 19  1  0  0  0
M  CHG 1  27   1
M  CHG 1  28  -1
M  END
> <minimizedAffinity>
-7.04720

> <CNNscore>
0.7576269507

> <CNNaffinity>
7.4976682663

> <CNN_VS>
5.6804356575

> <CNNaffinity_variance>
0.2472625971

$$$$
[H]ON([H])C(=O)C([H])([H])N(C([H])([H])c1c([H])c([H])c([N+](=O)[O-])c([H])c1[H])S(=O)(=O)c1c([H])c([H])c(OC([H])([H])[H])c([H])c1[H]


 29 30  0  0  0  0  0  0  0  0999 V2000
    7.9399   49.0478  130.9520 N   0  0  0  0  0  0  0  0  0  0  0  0
    9.4963   49.2190  131.6444 S   0  0  0  0  0  0  0  0  0  0  0  0
    9.5164   50.3666  132.6016 O   0  0  0  0  0  0  0  0  0  0  0  0
   10.4481   49.5784  130.5198 O   0  0  0  0  0  0  0  0  0  0  0  0
   10.8466   45.5395  133.8779 C   0  0  0  0  0  0  0  0  0  0  0  0
   11.4772   45.9388  132.7191 C   0  0  0  0  0  0  0  0  0  0  0  0
   11.0829   47.0610  132.0172 C   0  0  0  0  0  0  0  0  0  0  0  0
   10.0301   47.8071  132.4831 C   0  0  0  0  0  0  0  0  0  0  0  0
    9.3917   47.4207  133.6378 C   0  0  0  0  0  0  0  0  0  0  0  0
    9.7881   46.2906  134.3452 C   0  0  0  0  0  0  0  0  0  0  0  0
   12.2705   43.5809  133.9762 C   0  0  0  0  0  0  0  0  0  0  0  0
   11.2723   44.3886  134.5727 O   0  0  0  0  0  0  0  0  0  0  0  0
    7.1361   50.2229  131.0514 C   0  0  0  0  0  0  0  0  0  0  0  0
    6.5831   50.6553  129.7412 C   0  0  0  0  0  0  0  0  0  0  0  0
    5.5515   50.1330  129.2412 O   0  0  0  0  0  0  0  0  0  0  0  0
    7.2267   51.6856  129.0226 N   0  0  0  0  0  0  0  0  0  0  0  0
    6.7359   52.0924  127.8260 O   0  0  0  0  0  0  0  0  0  0  0  0
    8.0776   52.1220  129.4267 H   0  0  0  0  0  0  0  0  0  0  0  0
    7.5061   52.4133  127.2831 H   0  0  0  0  0  0  0  0  0  0  0  0
    7.9300   48.4149  129.6696 C   0  0  0  0  0  0  0  0  0  0  0  0
    8.2401   46.9687  129.8117 C   0  0  0  0  0  0  0  0  0  0  0  0
    7.4706   46.1737  130.6625 C   0  0  0  0  0  0  0  0  0  0  0  0
    7.7756   44.8420  130.7792 C   0  0  0  0  0  0  0  0  0  0  0  0
    8.8143   44.2386  130.0931 C   0  0  0  0  0  0  0  0  0  0  0  0
    9.5738   45.0398  129.2488 C   0  0  0  0  0  0  0  0  0  0  0  0
    9.2787   46.3794  129.1218 C   0  0  0  0  0  0  0  0  0  0  0  0
    9.1130   42.8577  130.2285 N   0  0  0  0  0  0  0  0  0  0  0  0
   10.4136   42.4719  130.4323 O   0  0  0  0  0  0  0  0  0  0  0  0
    8.1917   42.0268  130.1598 O   0  0  0  0  0  0  0  0  0  0  0  0
 11 12  1  0  0  0
 12  5  1  0  0  0
  5  6  2  0  0  0
  6  7  1  0  0  0
  7  8  2  0  0  0
  8  9  1  0  0  0
  9 10  2  0  0  0
  8  2  1  0  0  0
  2  3  2  0  0  0
  2  4  2  0  0  0
  2  1  1  0  0  0
  1 13  1  0  0  0
 13 14  1  0  0  0
 14 15  2  0  0  0
 14 16  1  0  0  0
 16 17  1  0  0  0
  1 20  1  0  0  0
 20 21  1  0  0  0
 21 22  2  0  0  0
 22 23  1  0  0  0
 23 24  2  0  0  0
 24 25  1  0  0  0
 25 26  2  0  0  0
 24 27  1  0  0  0
 27 28  1  0  0  0
 27 29  2  0  0  0
 10  5  1  0  0  0
 26 21  1  0  0  0
 16 18  1  0  0  0
 17 19  1  0  0  0
M  CHG 1  27   1
M  CHG 1  28  -1
M  END
> <minimizedAffinity>
-7.14296

> <CNNscore>
0.6482748389

> <CNNaffinity>
7.4174623489

> <CNN_VS>
4.8085541725

> <CNNaffinity_variance>
0.2790956497

$$$$
[H]ON([H])C(=O)C([H])([H])N(C([H])([H])c1c([H])c([H])c([N+](=O)[O-])c([H])c1[H])S(=O)(=O)c1c([H])c([H])c(OC([H])([H])[H])c([H])c1[H]


 29 30  0  0  0  0  0  0  0  0999 V2000
    8.3884   48.4436  130.3549 N   0  0  0  0  0  0  0  0  0  0  0  0
    7.6847   47.0428  129.6665 S   0  0  0  0  0  0  0  0  0  0  0  0
    7.5258   47.2124  128.1902 O   0  0  0  0  0  0  0  0  0  0  0  0
    6.2863   46.9180  130.2396 O   0  0  0  0  0  0  0  0  0  0  0  0
   10.0369   43.2719  130.4402 C   0  0  0  0  0  0  0  0  0  0  0  0
   10.5466   44.2773  129.6469 C   0  0  0  0  0  0  0  0  0  0  0  0
    9.8464   45.4408  129.3949 C   0  0  0  0  0  0  0  0  0  0  0  0
    8.6027   45.6077  129.9492 C   0  0  0  0  0  0  0  0  0  0  0  0
    8.0818   44.6132  130.7427 C   0  0  0  0  0  0  0  0  0  0  0  0
    8.7861   43.4411  130.9969 C   0  0  0  0  0  0  0  0  0  0  0  0
   11.1957   41.8290  132.0050 C   0  0  0  0  0  0  0  0  0  0  0  0
   10.7760   42.0949  130.6792 O   0  0  0  0  0  0  0  0  0  0  0  0
    8.0884   49.6441  129.6438 C   0  0  0  0  0  0  0  0  0  0  0  0
    6.6844   50.0925  129.8367 C   0  0  0  0  0  0  0  0  0  0  0  0
    6.3851   51.0656  130.5786 O   0  0  0  0  0  0  0  0  0  0  0  0
    5.6415   49.4130  129.1713 N   0  0  0  0  0  0  0  0  0  0  0  0
    4.3552   49.8086  129.3360 O   0  0  0  0  0  0  0  0  0  0  0  0
    5.8785   48.6098  128.5577 H   0  0  0  0  0  0  0  0  0  0  0  0
    3.7811   49.0023  129.2311 H   0  0  0  0  0  0  0  0  0  0  0  0
    8.2569   48.5335  131.7760 C   0  0  0  0  0  0  0  0  0  0  0  0
    9.1197   47.5181  132.4337 C   0  0  0  0  0  0  0  0  0  0  0  0
   10.4666   47.4183  132.0820 C   0  0  0  0  0  0  0  0  0  0  0  0
   11.2437   46.4731  132.7007 C   0  0  0  0  0  0  0  0  0  0  0  0
   10.7602   45.6053  133.6635 C   0  0  0  0  0  0  0  0  0  0  0  0
    9.4176   45.7137  134.0059 C   0  0  0  0  0  0  0  0  0  0  0  0
    8.6250   46.6588  133.3923 C   0  0  0  0  0  0  0  0  0  0  0  0
   11.5822   44.6337  134.2918 N   0  0  0  0  0  0  0  0  0  0  0  0
   11.1158   43.9827  135.4055 O   0  0  0  0  0  0  0  0  0  0  0  0
   12.7066   44.3926  133.8211 O   0  0  0  0  0  0  0  0  0  0  0  0
 11 12  1  0  0  0
 12  5  1  0  0  0
  5  6  2  0  0  0
  6  7  1  0  0  0
  7  8  2  0  0  0
  8  9  1  0  0  0
  9 10  2  0  0  0
  8  2  1  0  0  0
  2  3  2  0  0  0
  2  4  2  0  0  0
  2  1  1  0  0  0
  1 13  1  0  0  0
 13 14  1  0  0  0
 14 15  2  0  0  0
 14 16  1  0  0  0
 16 17  1  0  0  0
  1 20  1  0  0  0
 20 21  1  0  0  0
 21 22  2  0  0  0
 22 23  1  0  0  0
 23 24  2  0  0  0
 24 25  1  0  0  0
 25 26  2  0  0  0
 24 27  1  0  0  0
 27 28  1  0  0  0
 27 29  2  0  0  0
 10  5  1  0  0  0
 26 21  1  0  0  0
 16 18  1  0  0  0
 17 19  1  0  0  0
M  CHG 1  27   1
M  CHG 1  28  -1
M  END
> <minimizedAffinity>
-6.65200

> <CNNscore>
0.5905380249

> <CNNaffinity>
7.3047370911

> <CNN_VS>
4.3137249947

> <CNNaffinity_variance>
0.1851750612

$$$$
[H]ON([H])C(=O)C([H])([H])N(C([H])([H])c1c([H])c([H])c([N+](=O)[O-])c([H])c1[H])S(=O)(=O)c1c([H])c([H])c(OC([H])([H])[H])c([H])c1[H]


 29 30  0  0  0  0  0  0  0  0999 V2000
    9.9205   45.6939  130.7111 N   0  0  0  0  0  0  0  0  0  0  0  0
    9.9051   47.2349  131.4570 S   0  0  0  0  0  0  0  0  0  0  0  0
   11.2911   47.7884  131.5360 O   0  0  0  0  0  0  0  0  0  0  0  0
    9.4383   47.0345  132.8858 O   0  0  0  0  0  0  0  0  0  0  0  0
    7.2947   50.1897  129.2647 C   0  0  0  0  0  0  0  0  0  0  0  0
    7.9878   50.5577  130.3979 C   0  0  0  0  0  0  0  0  0  0  0  0
    8.7931   49.6720  131.0867 C   0  0  0  0  0  0  0  0  0  0  0  0
    8.9117   48.3825  130.6337 C   0  0  0  0  0  0  0  0  0  0  0  0
    8.2261   48.0015  129.5045 C   0  0  0  0  0  0  0  0  0  0  0  0
    7.4148   48.8927  128.8103 C   0  0  0  0  0  0  0  0  0  0  0  0
    7.0128   52.4005  128.3131 C   0  0  0  0  0  0  0  0  0  0  0  0
    6.4799   51.1168  128.5827 O   0  0  0  0  0  0  0  0  0  0  0  0
    9.5198   45.7162  129.3415 C   0  0  0  0  0  0  0  0  0  0  0  0
    9.2072   44.3635  128.8104 C   0  0  0  0  0  0  0  0  0  0  0  0
    8.1746   43.7286  129.1532 O   0  0  0  0  0  0  0  0  0  0  0  0
   10.0896   43.7587  127.8898 N   0  0  0  0  0  0  0  0  0  0  0  0
    9.8200   42.5255  127.3954 O   0  0  0  0  0  0  0  0  0  0  0  0
   10.9432   44.2745  127.6014 H   0  0  0  0  0  0  0  0  0  0  0  0
   10.6919   42.0882  127.1971 H   0  0  0  0  0  0  0  0  0  0  0  0
   11.0879   44.9155  130.9871 C   0  0  0  0  0  0  0  0  0  0  0  0
   11.1444   44.5749  132.4324 C   0  0  0  0  0  0  0  0  0  0  0  0
   12.2411   44.9743  133.1977 C   0  0  0  0  0  0  0  0  0  0  0  0
   12.2728   44.6478  134.5290 C   0  0  0  0  0  0  0  0  0  0  0  0
   11.2674   43.9373  135.1601 C   0  0  0  0  0  0  0  0  0  0  0  0
   10.1804   43.5448  134.3883 C   0  0  0  0  0  0  0  0  0  0  0  0
   10.1352   43.8660  133.0493 C   0  0  0  0  0  0  0  0  0  0  0  0
   11.3202   43.6097  136.5400 N   0  0  0  0  0  0  0  0  0  0  0  0
   12.0820   42.5434  136.9454 O   0  0  0  0  0  0  0  0  0  0  0  0
   10.6758   44.2943  137.3524 O   0  0  0  0  0  0  0  0  0  0  0  0
 11 12  1  0  0  0
 12  5  1  0  0  0
  5  6  2  0  0  0
  6  7  1  0  0  0
  7  8  2  0  0  0
  8  9  1  0  0  0
  9 10  2  0  0  0
  8  2  1  0  0  0
  2  3  2  0  0  0
  2  4  2  0  0  0
  2  1  1  0  0  0
  1 13  1  0  0  0
 13 14  1  0  0  0
 14 15  2  0  0  0
 14 16  1  0  0  0
 16 17  1  0  0  0
  1 20  1  0  0  0
 20 21  1  0  0  0
 21 22  2  0  0  0
 22 23  1  0  0  0
 23 24  2  0  0  0
 24 25  1  0  0  0
 25 26  2  0  0  0
 24 27  1  0  0  0
 27 28  1  0  0  0
 27 29  2  0  0  0
 10  5  1  0  0  0
 26 21  1  0  0  0
 16 18  1  0  0  0
 17 19  1  0  0  0
M  CHG 1  27   1
M  CHG 1  28  -1
M  END
> <minimizedAffinity>
-0.36912

> <CNNscore>
0.5308949947

> <CNNaffinity>
7.1893143654

> <CNN_VS>
3.8167710304

> <CNNaffinity_variance>
1.3213160038

$$$$
[H]ON([H])C(=O)C([H])([H])N(C([H])([H])c1c([H])c([H])c([N+](=O)[O-])c([H])c1[H])S(=O)(=O)c1c([H])c([H])c(OC([H])([H])[H])c([H])c1[H]


 29 30  0  0  0  0  0  0  0  0999 V2000
    8.3870   48.6882  129.7737 N   0  0  0  0  0  0  0  0  0  0  0  0
    7.5622   47.2703  129.2831 S   0  0  0  0  0  0  0  0  0  0  0  0
    7.3027   47.3023  127.8116 O   0  0  0  0  0  0  0  0  0  0  0  0
    6.2058   47.2859  129.9610 O   0  0  0  0  0  0  0  0  0  0  0  0
    9.7723   43.4671  130.2839 C   0  0  0  0  0  0  0  0  0  0  0  0
   10.1594   44.2555  129.2216 C   0  0  0  0  0  0  0  0  0  0  0  0
    9.4995   45.4239  128.8949 C   0  0  0  0  0  0  0  0  0  0  0  0
    8.4229   45.8185  129.6481 C   0  0  0  0  0  0  0  0  0  0  0  0
    8.0256   45.0418  130.7106 C   0  0  0  0  0  0  0  0  0  0  0  0
    8.6895   43.8650  131.0404 C   0  0  0  0  0  0  0  0  0  0  0  0
   11.0654   42.1702  131.8711 C   0  0  0  0  0  0  0  0  0  0  0  0
   10.4663   42.2790  130.5929 O   0  0  0  0  0  0  0  0  0  0  0  0
    7.6565   49.4817  130.7083 C   0  0  0  0  0  0  0  0  0  0  0  0
    6.8581   50.5521  130.0554 C   0  0  0  0  0  0  0  0  0  0  0  0
    5.7643   50.9593  130.5295 O   0  0  0  0  0  0  0  0  0  0  0  0
    7.3308   51.1406  128.8628 N   0  0  0  0  0  0  0  0  0  0  0  0
    6.6153   52.1181  128.2540 O   0  0  0  0  0  0  0  0  0  0  0  0
    8.2314   50.8114  128.4646 H   0  0  0  0  0  0  0  0  0  0  0  0
    6.8013   52.0578  127.2780 H   0  0  0  0  0  0  0  0  0  0  0  0
    9.7654   48.4878  130.0975 C   0  0  0  0  0  0  0  0  0  0  0  0
    9.8863   47.7684  131.3920 C   0  0  0  0  0  0  0  0  0  0  0  0
   10.9342   46.8683  131.5911 C   0  0  0  0  0  0  0  0  0  0  0  0
   11.0254   46.2146  132.7930 C   0  0  0  0  0  0  0  0  0  0  0  0
   10.1265   46.4006  133.8279 C   0  0  0  0  0  0  0  0  0  0  0  0
    9.0872   47.2991  133.6185 C   0  0  0  0  0  0  0  0  0  0  0  0
    8.9832   47.9631  132.4159 C   0  0  0  0  0  0  0  0  0  0  0  0
   10.2393   45.7133  135.0646 N   0  0  0  0  0  0  0  0  0  0  0  0
   10.9491   44.5406  135.1154 O   0  0  0  0  0  0  0  0  0  0  0  0
    9.6935   46.1871  136.0753 O   0  0  0  0  0  0  0  0  0  0  0  0
 11 12  1  0  0  0
 12  5  1  0  0  0
  5  6  2  0  0  0
  6  7  1  0  0  0
  7  8  2  0  0  0
  8  9  1  0  0  0
  9 10  2  0  0  0
  8  2  1  0  0  0
  2  3  2  0  0  0
  2  4  2  0  0  0
  2  1  1  0  0  0
  1 13  1  0  0  0
 13 14  1  0  0  0
 14 15  2  0  0  0
 14 16  1  0  0  0
 16 17  1  0  0  0
  1 20  1  0  0  0
 20 21  1  0  0  0
 21 22  2  0  0  0
 22 23  1  0  0  0
 23 24  2  0  0  0
 24 25  1  0  0  0
 25 26  2  0  0  0
 24 27  1  0  0  0
 27 28  1  0  0  0
 27 29  2  0  0  0
 10  5  1  0  0  0
 26 21  1  0  0  0
 16 18  1  0  0  0
 17 19  1  0  0  0
M  CHG 1  27   1
M  CHG 1  28  -1
M  END
> <minimizedAffinity>
-6.66257

> <CNNscore>
0.4987214506

> <CNNaffinity>
7.2752394676

> <CNN_VS>
3.6283180714

> <CNNaffinity_variance>
0.2131852210

$$$$
[H]ON([H])C(=O)C([H])([H])N(C([H])([H])c1c([H])c([H])c([N+](=O)[O-])c([H])c1[H])S(=O)(=O)c1c([H])c([H])c(OC([H])([H])[H])c([H])c1[H]


 29 30  0  0  0  0  0  0  0  0999 V2000
    8.4510   48.9625  131.6757 N   0  0  0  0  0  0  0  0  0  0  0  0
   10.0612   48.7065  131.1532 S   0  0  0  0  0  0  0  0  0  0  0  0
   11.0013   48.7735  132.3132 O   0  0  0  0  0  0  0  0  0  0  0  0
   10.4223   49.8604  130.2379 O   0  0  0  0  0  0  0  0  0  0  0  0
   10.6990   44.7277  129.1251 C   0  0  0  0  0  0  0  0  0  0  0  0
    9.7963   45.6426  128.6271 C   0  0  0  0  0  0  0  0  0  0  0  0
    9.5830   46.8670  129.2295 C   0  0  0  0  0  0  0  0  0  0  0  0
   10.2893   47.1894  130.3606 C   0  0  0  0  0  0  0  0  0  0  0  0
   11.1930   46.2864  130.8685 C   0  0  0  0  0  0  0  0  0  0  0  0
   11.4084   45.0531  130.2626 C   0  0  0  0  0  0  0  0  0  0  0  0
    9.7926   42.8957  127.8230 C   0  0  0  0  0  0  0  0  0  0  0  0
   10.8950   43.4851  128.4877 O   0  0  0  0  0  0  0  0  0  0  0  0
    7.4734   48.6971  130.6703 C   0  0  0  0  0  0  0  0  0  0  0  0
    6.8952   49.9363  130.0874 C   0  0  0  0  0  0  0  0  0  0  0  0
    5.8923   50.5107  130.5884 O   0  0  0  0  0  0  0  0  0  0  0  0
    7.4809   50.4985  128.9329 N   0  0  0  0  0  0  0  0  0  0  0  0
    6.9664   51.6284  128.3880 O   0  0  0  0  0  0  0  0  0  0  0  0
    8.3078   50.0320  128.5129 H   0  0  0  0  0  0  0  0  0  0  0  0
    7.1472   51.5949  127.4097 H   0  0  0  0  0  0  0  0  0  0  0  0
    8.1550   48.4202  132.9653 C   0  0  0  0  0  0  0  0  0  0  0  0
    8.4735   46.9690  132.9943 C   0  0  0  0  0  0  0  0  0  0  0  0
    9.4140   46.4824  133.9035 C   0  0  0  0  0  0  0  0  0  0  0  0
    9.6933   45.1401  133.9117 C   0  0  0  0  0  0  0  0  0  0  0  0
    9.0879   44.2340  133.0594 C   0  0  0  0  0  0  0  0  0  0  0  0
    8.1532   44.7297  132.1583 C   0  0  0  0  0  0  0  0  0  0  0  0
    7.8626   46.0762  132.1390 C   0  0  0  0  0  0  0  0  0  0  0  0
    9.3919   42.8479  133.0844 N   0  0  0  0  0  0  0  0  0  0  0  0
   10.5207   42.3993  132.4471 O   0  0  0  0  0  0  0  0  0  0  0  0
    8.6302   42.0692  133.6824 O   0  0  0  0  0  0  0  0  0  0  0  0
 11 12  1  0  0  0
 12  5  1  0  0  0
  5  6  2  0  0  0
  6  7  1  0  0  0
  7  8  2  0  0  0
  8  9  1  0  0  0
  9 10  2  0  0  0
  8  2  1  0  0  0
  2  3  2  0  0  0
  2  4  2  0  0  0
  2  1  1  0  0  0
  1 13  1  0  0  0
 13 14  1  0  0  0
 14 15  2  0  0  0
 14 16  1  0  0  0
 16 17  1  0  0  0
  1 20  1  0  0  0
 20 21  1  0  0  0
 21 22  2  0  0  0
 22 23  1  0  0  0
 23 24  2  0  0  0
 24 25  1  0  0  0
 25 26  2  0  0  0
 24 27  1  0  0  0
 27 28  1  0  0  0
 27 29  2  0  0  0
 10  5  1  0  0  0
 26 21  1  0  0  0
 16 18  1  0  0  0
 17 19  1  0  0  0
M  CHG 1  27   1
M  CHG 1  28  -1
M  END
> <minimizedAffinity>
-4.97961

> <CNNscore>
0.4825552702

> <CNNaffinity>
7.1201682091

> <CNN_VS>
3.4358747005

> <CNNaffinity_variance>
0.1998372376

$$$$
[H]ON([H])C(=O)C([H])([H])N(C([H])([H])c1c([H])c([H])c([N+](=O)[O-])c([H])c1[H])S(=O)(=O)c1c([H])c([H])c(OC([H])([H])[H])c([H])c1[H]


 29 30  0  0  0  0  0  0  0  0999 V2000
    8.0817   48.6962  131.0308 N   0  0  0  0  0  0  0  0  0  0  0  0
    9.0503   48.3624  129.6590 S   0  0  0  0  0  0  0  0  0  0  0  0
   10.3857   49.0200  129.7928 O   0  0  0  0  0  0  0  0  0  0  0  0
    8.3705   49.0051  128.4655 O   0  0  0  0  0  0  0  0  0  0  0  0
    9.6589   43.9412  129.0007 C   0  0  0  0  0  0  0  0  0  0  0  0
   10.5751   44.8614  128.5382 C   0  0  0  0  0  0  0  0  0  0  0  0
   10.4116   46.2197  128.7269 C   0  0  0  0  0  0  0  0  0  0  0  0
    9.3035   46.6747  129.3957 C   0  0  0  0  0  0  0  0  0  0  0  0
    8.3814   45.7683  129.8627 C   0  0  0  0  0  0  0  0  0  0  0  0
    8.5452   44.4001  129.6731 C   0  0  0  0  0  0  0  0  0  0  0  0
   10.0792   42.1107  127.4691 C   0  0  0  0  0  0  0  0  0  0  0  0
    9.8535   42.5601  128.7926 O   0  0  0  0  0  0  0  0  0  0  0  0
    6.8879   47.9165  131.0927 C   0  0  0  0  0  0  0  0  0  0  0  0
    5.9363   48.2316  129.9951 C   0  0  0  0  0  0  0  0  0  0  0  0
    5.4322   47.3376  129.2647 O   0  0  0  0  0  0  0  0  0  0  0  0
    5.5772   49.5749  129.7526 N   0  0  0  0  0  0  0  0  0  0  0  0
    4.7106   49.8802  128.7556 O   0  0  0  0  0  0  0  0  0  0  0  0
    5.9876   50.3186  130.3495 H   0  0  0  0  0  0  0  0  0  0  0  0
    4.9464   50.7893  128.4257 H   0  0  0  0  0  0  0  0  0  0  0  0
    8.8084   48.7882  132.2589 C   0  0  0  0  0  0  0  0  0  0  0  0
    9.2838   47.4426  132.6728 C   0  0  0  0  0  0  0  0  0  0  0  0
    8.3890   46.5338  133.2398 C   0  0  0  0  0  0  0  0  0  0  0  0
    8.8499   45.2984  133.6156 C   0  0  0  0  0  0  0  0  0  0  0  0
   10.1660   44.9007  133.4618 C   0  0  0  0  0  0  0  0  0  0  0  0
   11.0481   45.8136  132.8962 C   0  0  0  0  0  0  0  0  0  0  0  0
   10.5988   47.0585  132.5139 C   0  0  0  0  0  0  0  0  0  0  0  0
   10.6225   43.6164  133.8579 N   0  0  0  0  0  0  0  0  0  0  0  0
    9.9930   42.5018  133.3649 O   0  0  0  0  0  0  0  0  0  0  0  0
   11.5819   43.5276  134.6424 O   0  0  0  0  0  0  0  0  0  0  0  0
 11 12  1  0  0  0
 12  5  1  0  0  0
  5  6  2  0  0  0
  6  7  1  0  0  0
  7  8  2  0  0  0
  8  9  1  0  0  0
  9 10  2  0  0  0
  8  2  1  0  0  0
  2  3  2  0  0  0
  2  4  2  0  0  0
  2  1  1  0  0  0
  1 13  1  0  0  0
 13 14  1  0  0  0
 14 15  2  0  0  0
 14 16  1  0  0  0
 16 17  1  0  0  0
  1 20  1  0  0  0
 20 21  1  0  0  0
 21 22  2  0  0  0
 22 23  1  0  0  0
 23 24  2  0  0  0
 24 25  1  0  0  0
 25 26  2  0  0  0
 24 27  1  0  0  0
 27 28  1  0  0  0
 27 29  2  0  0  0
 10  5  1  0  0  0
 26 21  1  0  0  0
 16 18  1  0  0  0
 17 19  1  0  0  0
M  CHG 1  27   1
M  CHG 1  28  -1
M  END
> <minimizedAffinity>
-2.40181

> <CNNscore>
0.3517719209

> <CNNaffinity>
6.9043579102

> <CNN_VS>
2.4287593365

> <CNNaffinity_variance>
0.2034939080

$$$$
[H]ON([H])C(=O)C([H])([H])N(C([H])([H])c1c([H])c([H])c([N+](=O)[O-])c([H])c1[H])S(=O)(=O)c1c([H])c([H])c(OC([H])([H])[H])c([H])c1[H]


 29 30  0  0  0  0  0  0  0  0999 V2000
    8.9391   44.7158  130.0837 N   0  0  0  0  0  0  0  0  0  0  0  0
    8.7922   44.3973  131.7595 S   0  0  0  0  0  0  0  0  0  0  0  0
    8.4837   42.9531  131.9893 O   0  0  0  0  0  0  0  0  0  0  0  0
    7.5930   45.1796  132.2592 O   0  0  0  0  0  0  0  0  0  0  0  0
   12.5068   45.3786  134.1238 C   0  0  0  0  0  0  0  0  0  0  0  0
   11.8401   46.3520  133.4111 C   0  0  0  0  0  0  0  0  0  0  0  0
   10.7013   46.0771  132.6797 C   0  0  0  0  0  0  0  0  0  0  0  0
   10.2123   44.7955  132.6576 C   0  0  0  0  0  0  0  0  0  0  0  0
   10.8670   43.8144  133.3639 C   0  0  0  0  0  0  0  0  0  0  0  0
   12.0140   44.0903  134.1007 C   0  0  0  0  0  0  0  0  0  0  0  0
   13.9458   47.0537  135.1220 C   0  0  0  0  0  0  0  0  0  0  0  0
   13.6676   45.6901  134.8615 O   0  0  0  0  0  0  0  0  0  0  0  0
    9.7782   43.7889  129.3956 C   0  0  0  0  0  0  0  0  0  0  0  0
   11.1880   44.2501  129.2983 C   0  0  0  0  0  0  0  0  0  0  0  0
   11.5778   45.0351  128.3936 O   0  0  0  0  0  0  0  0  0  0  0  0
   12.1320   43.8001  130.2461 N   0  0  0  0  0  0  0  0  0  0  0  0
   13.4220   44.2107  130.1723 O   0  0  0  0  0  0  0  0  0  0  0  0
   11.8200   43.1529  130.9955 H   0  0  0  0  0  0  0  0  0  0  0  0
   13.9872   43.4819  130.5468 H   0  0  0  0  0  0  0  0  0  0  0  0
    7.7037   45.0149  129.4286 C   0  0  0  0  0  0  0  0  0  0  0  0
    7.4503   46.4788  129.4605 C   0  0  0  0  0  0  0  0  0  0  0  0
    8.5175   47.3652  129.6132 C   0  0  0  0  0  0  0  0  0  0  0  0
    8.2602   48.7117  129.6413 C   0  0  0  0  0  0  0  0  0  0  0  0
    6.9884   49.2437  129.5257 C   0  0  0  0  0  0  0  0  0  0  0  0
    5.9335   48.3517  129.3741 C   0  0  0  0  0  0  0  0  0  0  0  0
    6.1772   46.9962  129.3441 C   0  0  0  0  0  0  0  0  0  0  0  0
    6.7441   50.6414  129.5574 N   0  0  0  0  0  0  0  0  0  0  0  0
    7.1074   51.4083  128.4796 O   0  0  0  0  0  0  0  0  0  0  0  0
    6.2067   51.1420  130.5597 O   0  0  0  0  0  0  0  0  0  0  0  0
 11 12  1  0  0  0
 12  5  1  0  0  0
  5  6  2  0  0  0
  6  7  1  0  0  0
  7  8  2  0  0  0
  8  9  1  0  0  0
  9 10  2  0  0  0
  8  2  1  0  0  0
  2  3  2  0  0  0
  2  4  2  0  0  0
  2  1  1  0  0  0
  1 13  1  0  0  0
 13 14  1  0  0  0
 14 15  2  0  0  0
 14 16  1  0  0  0
 16 17  1  0  0  0
  1 20  1  0  0  0
 20 21  1  0  0  0
 21 22  2  0  0  0
 22 23  1  0  0  0
 23 24  2  0  0  0
 24 25  1  0  0  0
 25 26  2  0  0  0
 24 27  1  0  0  0
 27 28  1  0  0  0
 27 29  2  0  0  0
 10  5  1  0  0  0
 26 21  1  0  0  0
 16 18  1  0  0  0
 17 19  1  0  0  0
M  CHG 1  27   1
M  CHG 1  28  -1
M  END
> <minimizedAffinity>
-2.89408

> <CNNscore>
0.3033728898

> <CNNaffinity>
6.7970466614

> <CNN_VS>
2.0620396137

> <CNNaffinity_variance>
0.5327483416

$$$$
[H]ON([H])C(=O)C([H])([H])N(C([H])([H])c1c([H])c([H])c([N+](=O)[O-])c([H])c1[H])S(=O)(=O)c1c([H])c([H])c(OC([H])([H])[H])c([H])c1[H]


 29 30  0  0  0  0  0  0  0  0999 V2000
   10.2801   43.2236  130.1891 N   0  0  0  0  0  0  0  0  0  0  0  0
    9.6568   44.0999  128.8568 S   0  0  0  0  0  0  0  0  0  0  0  0
    8.5374   43.3452  128.2157 O   0  0  0  0  0  0  0  0  0  0  0  0
   10.7639   44.1895  127.8243 O   0  0  0  0  0  0  0  0  0  0  0  0
    8.0810   48.1767  129.9737 C   0  0  0  0  0  0  0  0  0  0  0  0
    9.4222   47.9763  129.7266 C   0  0  0  0  0  0  0  0  0  0  0  0
    9.9292   46.7384  129.3831 C   0  0  0  0  0  0  0  0  0  0  0  0
    9.0756   45.6691  129.2828 C   0  0  0  0  0  0  0  0  0  0  0  0
    7.7353   45.8542  129.5265 C   0  0  0  0  0  0  0  0  0  0  0  0
    7.2238   47.1005  129.8726 C   0  0  0  0  0  0  0  0  0  0  0  0
    7.1513   50.3050  129.2817 C   0  0  0  0  0  0  0  0  0  0  0  0
    7.5930   49.4529  130.3225 O   0  0  0  0  0  0  0  0  0  0  0  0
   11.6015   43.6121  130.5628 C   0  0  0  0  0  0  0  0  0  0  0  0
   12.0432   42.9965  131.8416 C   0  0  0  0  0  0  0  0  0  0  0  0
   11.8191   41.7884  132.1192 O   0  0  0  0  0  0  0  0  0  0  0  0
   12.7386   43.7820  132.7859 N   0  0  0  0  0  0  0  0  0  0  0  0
   13.1487   43.2367  133.9575 O   0  0  0  0  0  0  0  0  0  0  0  0
   12.9279   44.7788  132.5659 H   0  0  0  0  0  0  0  0  0  0  0  0
   13.1535   43.9636  134.6374 H   0  0  0  0  0  0  0  0  0  0  0  0
    9.3641   43.0713  131.2766 C   0  0  0  0  0  0  0  0  0  0  0  0
    9.2480   44.3474  132.0289 C   0  0  0  0  0  0  0  0  0  0  0  0
    8.0287   44.7048  132.6064 C   0  0  0  0  0  0  0  0  0  0  0  0
    7.9442   45.8876  133.2948 C   0  0  0  0  0  0  0  0  0  0  0  0
    9.0119   46.7536  133.4490 C   0  0  0  0  0  0  0  0  0  0  0  0
   10.2210   46.3876  132.8699 C   0  0  0  0  0  0  0  0  0  0  0  0
   10.3205   45.2020  132.1753 C   0  0  0  0  0  0  0  0  0  0  0  0
    8.9027   47.9737  134.1659 N   0  0  0  0  0  0  0  0  0  0  0  0
    9.4725   49.1080  133.6459 O   0  0  0  0  0  0  0  0  0  0  0  0
    8.2939   47.9900  135.2490 O   0  0  0  0  0  0  0  0  0  0  0  0
 11 12  1  0  0  0
 12  5  1  0  0  0
  5  6  2  0  0  0
  6  7  1  0  0  0
  7  8  2  0  0  0
  8  9  1  0  0  0
  9 10  2  0  0  0
  8  2  1  0  0  0
  2  3  2  0  0  0
  2  4  2  0  0  0
  2  1  1  0  0  0
  1 13  1  0  0  0
 13 14  1  0  0  0
 14 15  2  0  0  0
 14 16  1  0  0  0
 16 17  1  0  0  0
  1 20  1  0  0  0
 20 21  1  0  0  0
 21 22  2  0  0  0
 22 23  1  0  0  0
 23 24  2  0  0  0
 24 25  1  0  0  0
 25 26  2  0  0  0
 24 27  1  0  0  0
 27 28  1  0  0  0
 27 29  2  0  0  0
 10  5  1  0  0  0
 26 21  1  0  0  0
 16 18  1  0  0  0
 17 19  1  0  0  0
M  CHG 1  27   1
M  CHG 1  28  -1
M  END
> <minimizedAffinity>
-5.95453

> <CNNscore>
0.2672409117

> <CNNaffinity>
7.0102949142

> <CNN_VS>
1.8734376431

> <CNNaffinity_variance>
0.0737290829

$$$$
[H]OC([H])([H])[C@@]1([H])[C@@]([H])(C([H])([H])C([H])([H])P(=O)(O[H])O[H])N([H])C([H])([H])[C@]([H])(O[H])[C@@]([H])(O[H])[C@]1([H])O[H]


 25 25  0  0  0  0  0  0  0  0999 V2000
    9.3214   47.9737  130.8671 C   0  0  0  0  0  0  0  0  0  0  0  0
    8.2075   48.9168  130.6559 C   0  0  0  0  0  0  0  0  0  0  0  0
    8.6761   50.2230  130.7042 O   0  0  0  0  0  0  0  0  0  0  0  0
    7.5805   48.7840  129.2586 C   0  0  0  0  0  0  0  0  0  0  0  0
    6.9969   49.9674  128.8488 O   0  0  0  0  0  0  0  0  0  0  0  0
    6.5860   47.6474  129.3667 C   0  0  0  0  0  0  0  0  0  0  0  0
    5.7140   47.6005  128.2923 O   0  0  0  0  0  0  0  0  0  0  0  0
    7.4381   46.3726  129.4420 C   0  0  0  0  0  0  0  0  0  0  0  0
    7.6802   46.1223  130.8233 N   0  0  0  0  0  0  0  0  0  0  0  0
    8.9102   46.6017  131.3403 C   0  0  0  0  0  0  0  0  0  0  0  0
    8.9070   50.5769  129.7933 H   0  0  0  0  0  0  0  0  0  0  0  0
    6.1357   49.7377  128.4020 H   0  0  0  0  0  0  0  0  0  0  0  0
    4.8600   47.1693  128.5584 H   0  0  0  0  0  0  0  0  0  0  0  0
    6.8318   46.3994  131.3601 H   0  0  0  0  0  0  0  0  0  0  0  0
    9.6467   49.1627  132.9022 O   0  0  0  0  0  0  0  0  0  0  0  0
   10.3110   48.5532  131.8452 C   0  0  0  0  0  0  0  0  0  0  0  0
   10.2165   49.7728  133.4160 H   0  0  0  0  0  0  0  0  0  0  0  0
    8.8922   46.5220  132.8562 C   0  0  0  0  0  0  0  0  0  0  0  0
    9.0923   45.1146  133.3454 C   0  0  0  0  0  0  0  0  0  0  0  0
   10.8235   44.6594  133.1938 P   0  0  0  0  0  0  0  0  0  0  0  0
   11.1517   43.3992  134.2663 O   0  0  0  0  0  0  0  0  0  0  0  0
   11.2393   44.2626  131.6094 O   0  0  0  0  0  0  0  0  0  0  0  0
   11.6615   45.8465  133.6117 O   0  0  0  0  0  0  0  0  0  0  0  0
   12.1150   43.3811  134.4796 H   0  0  0  0  0  0  0  0  0  0  0  0
   10.9389   43.3347  131.4435 H   0  0  0  0  0  0  0  0  0  0  0  0
 15 16  1  0  0  0
 16  1  1  0  0  0
  1  2  1  0  0  0
  2  3  1  0  0  0
  2  4  1  0  0  0
  4  5  1  0  0  0
  4  6  1  0  0  0
  6  7  1  0  0  0
  6  8  1  0  0  0
  8  9  1  0  0  0
  9 10  1  0  0  0
 10 18  1  0  0  0
 18 19  1  0  0  0
 19 20  1  0  0  0
 20 21  1  0  0  0
 20 22  1  0  0  0
 20 23  2  0  0  0
 10  1  1  0  0  0
 15 17  1  0  0  0
  3 11  1  0  0  0
  5 12  1  0  0  0
  7 13  1  0  0  0
  9 14  1  0  0  0
 21 24  1  0  0  0
 22 25  1  0  0  0
M  END
> <minimizedAffinity>
-7.18233

> <CNNscore>
0.3944304585

> <CNNaffinity>
5.1702647209

> <CNN_VS>
2.0393099785

> <CNNaffinity_variance>
2.0695436001

$$$$
[H]OC([H])([H])[C@@]1([H])[C@@]([H])(C([H])([H])C([H])([H])P(=O)(O[H])O[H])N([H])C([H])([H])[C@]([H])(O[H])[C@@]([H])(O[H])[C@]1([H])O[H]


 25 25  0  0  0  0  0  0  0  0999 V2000
   10.4743   46.6145  131.7606 C   0  0  0  0  0  0  0  0  0  0  0  0
    9.8571   47.5965  132.6714 C   0  0  0  0  0  0  0  0  0  0  0  0
   10.5143   47.5876  133.8946 O   0  0  0  0  0  0  0  0  0  0  0  0
   10.0030   49.0410  132.1663 C   0  0  0  0  0  0  0  0  0  0  0  0
    9.9822   49.9483  133.2081 O   0  0  0  0  0  0  0  0  0  0  0  0
    8.8651   49.2457  131.1887 C   0  0  0  0  0  0  0  0  0  0  0  0
    8.6633   50.5803  130.8801 O   0  0  0  0  0  0  0  0  0  0  0  0
    9.2579   48.4438  129.9398 C   0  0  0  0  0  0  0  0  0  0  0  0
    8.7131   47.1377  130.1031 N   0  0  0  0  0  0  0  0  0  0  0  0
    9.5893   46.1549  130.6288 C   0  0  0  0  0  0  0  0  0  0  0  0
   11.2422   48.2779  133.9389 H   0  0  0  0  0  0  0  0  0  0  0  0
    9.4345   50.7283  132.9151 H   0  0  0  0  0  0  0  0  0  0  0  0
    7.7200   50.7343  130.6109 H   0  0  0  0  0  0  0  0  0  0  0  0
    7.7957   47.2237  130.5887 H   0  0  0  0  0  0  0  0  0  0  0  0
   12.3178   45.4525  132.7161 O   0  0  0  0  0  0  0  0  0  0  0  0
   10.9407   45.4102  132.5379 C   0  0  0  0  0  0  0  0  0  0  0  0
   12.7006   44.5875  132.9731 H   0  0  0  0  0  0  0  0  0  0  0  0
    8.7973   44.9183  131.0132 C   0  0  0  0  0  0  0  0  0  0  0  0
    8.5250   44.0364  129.8266 C   0  0  0  0  0  0  0  0  0  0  0  0
   10.0362   43.8032  128.8838 P   0  0  0  0  0  0  0  0  0  0  0  0
    9.7879   42.5789  127.7499 O   0  0  0  0  0  0  0  0  0  0  0  0
   10.5614   45.2330  128.1623 O   0  0  0  0  0  0  0  0  0  0  0  0
   11.1168   43.3363  129.8328 O   0  0  0  0  0  0  0  0  0  0  0  0
   10.6524   42.1795  127.4911 H   0  0  0  0  0  0  0  0  0  0  0  0
   10.0238   45.3712  127.3433 H   0  0  0  0  0  0  0  0  0  0  0  0
 15 16  1  0  0  0
 16  1  1  0  0  0
  1  2  1  0  0  0
  2  3  1  0  0  0
  2  4  1  0  0  0
  4  5  1  0  0  0
  4  6  1  0  0  0
  6  7  1  0  0  0
  6  8  1  0  0  0
  8  9  1  0  0  0
  9 10  1  0  0  0
 10 18  1  0  0  0
 18 19  1  0  0  0
 19 20  1  0  0  0
 20 21  1  0  0  0
 20 22  1  0  0  0
 20 23  2  0  0  0
 10  1  1  0  0  0
 15 17  1  0  0  0
  3 11  1  0  0  0
  5 12  1  0  0  0
  7 13  1  0  0  0
  9 14  1  0  0  0
 21 24  1  0  0  0
 22 25  1  0  0  0
M  END
> <minimizedAffinity>
-6.41659

> <CNNscore>
0.3868507445

> <CNNaffinity>
5.0688934326

> <CNN_VS>
1.9609051943

> <CNNaffinity_variance>
3.8490395546

$$$$
[H]OC([H])([H])[C@@]1([H])[C@@]([H])(C([H])([H])C([H])([H])P(=O)(O[H])O[H])N([H])C([H])([H])[C@]([H])(O[H])[C@@]([H])(O[H])[C@]1([H])O[H]


 25 25  0  0  0  0  0  0  0  0999 V2000
    8.7840   44.8187  132.8001 C   0  0  0  0  0  0  0  0  0  0  0  0
   10.0244   44.1170  132.4207 C   0  0  0  0  0  0  0  0  0  0  0  0
   10.6129   43.5525  133.5446 O   0  0  0  0  0  0  0  0  0  0  0  0
    9.7644   42.9268  131.4832 C   0  0  0  0  0  0  0  0  0  0  0  0
   10.7489   41.9643  131.5987 O   0  0  0  0  0  0  0  0  0  0  0  0
    9.6831   43.5171  130.0913 C   0  0  0  0  0  0  0  0  0  0  0  0
    9.7654   42.5539  129.1001 O   0  0  0  0  0  0  0  0  0  0  0  0
    8.3330   44.2463  130.0414 C   0  0  0  0  0  0  0  0  0  0  0  0
    8.5757   45.5871  130.4571 N   0  0  0  0  0  0  0  0  0  0  0  0
    8.3275   45.8737  131.8232 C   0  0  0  0  0  0  0  0  0  0  0  0
   10.3317   42.5983  133.6810 H   0  0  0  0  0  0  0  0  0  0  0  0
   10.9583   41.6383  130.6800 H   0  0  0  0  0  0  0  0  0  0  0  0
   10.1264   42.9485  128.2634 H   0  0  0  0  0  0  0  0  0  0  0  0
    9.5117   45.8755  130.1032 H   0  0  0  0  0  0  0  0  0  0  0  0
   10.2318   45.9331  134.3243 O   0  0  0  0  0  0  0  0  0  0  0  0
    8.9408   45.4464  134.1614 C   0  0  0  0  0  0  0  0  0  0  0  0
   10.4639   46.1063  135.2607 H   0  0  0  0  0  0  0  0  0  0  0  0
    8.9016   47.2351  132.1714 C   0  0  0  0  0  0  0  0  0  0  0  0
    8.0373   48.3544  131.6615 C   0  0  0  0  0  0  0  0  0  0  0  0
    8.8546   49.1759  130.2888 P   0  0  0  0  0  0  0  0  0  0  0  0
    9.5299   48.0064  129.2776 O   0  0  0  0  0  0  0  0  0  0  0  0
    7.8133   50.2051  129.4539 O   0  0  0  0  0  0  0  0  0  0  0  0
    9.9867   50.0098  130.8447 O   0  0  0  0  0  0  0  0  0  0  0  0
   10.2697   48.3992  128.7558 H   0  0  0  0  0  0  0  0  0  0  0  0
    7.2642   49.6491  128.8470 H   0  0  0  0  0  0  0  0  0  0  0  0
 15 16  1  0  0  0
 16  1  1  0  0  0
  1  2  1  0  0  0
  2  3  1  0  0  0
  2  4  1  0  0  0
  4  5  1  0  0  0
  4  6  1  0  0  0
  6  7  1  0  0  0
  6  8  1  0  0  0
  8  9  1  0  0  0
  9 10  1  0  0  0
 10 18  1  0  0  0
 18 19  1  0  0  0
 19 20  1  0  0  0
 20 21  1  0  0  0
 20 22  1  0  0  0
 20 23  2  0  0  0
 10  1  1  0  0  0
 15 17  1  0  0  0
  3 11  1  0  0  0
  5 12  1  0  0  0
  7 13  1  0  0  0
  9 14  1  0  0  0
 21 24  1  0  0  0
 22 25  1  0  0  0
M  END
> <minimizedAffinity>
-5.68603

> <CNNscore>
0.3765797615

> <CNNaffinity>
5.3708710670

> <CNN_VS>
2.0225613117

> <CNNaffinity_variance>
4.0007071495

$$$$
[H]OC([H])([H])[C@@]1([H])[C@@]([H])(C([H])([H])C([H])([H])P(=O)(O[H])O[H])N([H])C([H])([H])[C@]([H])(O[H])[C@@]([H])(O[H])[C@]1([H])O[H]


 25 25  0  0  0  0  0  0  0  0999 V2000
    8.9862   45.8436  132.0544 C   0  0  0  0  0  0  0  0  0  0  0  0
    9.6294   46.5373  133.1858 C   0  0  0  0  0  0  0  0  0  0  0  0
    8.9081   47.6771  133.5154 O   0  0  0  0  0  0  0  0  0  0  0  0
    9.6266   45.6946  134.4715 C   0  0  0  0  0  0  0  0  0  0  0  0
    9.6631   46.4900  135.6006 O   0  0  0  0  0  0  0  0  0  0  0  0
   10.8286   44.7807  134.3600 C   0  0  0  0  0  0  0  0  0  0  0  0
   11.1525   44.1795  135.5645 O   0  0  0  0  0  0  0  0  0  0  0  0
   10.4416   43.7329  133.3067 C   0  0  0  0  0  0  0  0  0  0  0  0
   10.8710   44.2402  132.0467 N   0  0  0  0  0  0  0  0  0  0  0  0
    9.8920   44.9197  131.2787 C   0  0  0  0  0  0  0  0  0  0  0  0
    8.2362   47.5039  134.2412 H   0  0  0  0  0  0  0  0  0  0  0  0
   10.2862   46.0604  136.2496 H   0  0  0  0  0  0  0  0  0  0  0  0
   12.1183   43.9500  135.5878 H   0  0  0  0  0  0  0  0  0  0  0  0
   11.7645   44.7561  132.1885 H   0  0  0  0  0  0  0  0  0  0  0  0
    7.1716   46.3833  130.6131 O   0  0  0  0  0  0  0  0  0  0  0  0
    8.3839   46.8489  131.1065 C   0  0  0  0  0  0  0  0  0  0  0  0
    6.8729   46.8599  129.8104 H   0  0  0  0  0  0  0  0  0  0  0  0
   10.5610   45.6425  130.1236 C   0  0  0  0  0  0  0  0  0  0  0  0
   10.8683   44.7121  128.9835 C   0  0  0  0  0  0  0  0  0  0  0  0
    9.5143   43.5520  128.7645 P   0  0  0  0  0  0  0  0  0  0  0  0
    9.6819   42.3010  129.8839 O   0  0  0  0  0  0  0  0  0  0  0  0
    8.0098   44.3030  128.8796 O   0  0  0  0  0  0  0  0  0  0  0  0
    9.6290   42.9487  127.3828 O   0  0  0  0  0  0  0  0  0  0  0  0
    9.2093   41.4964  129.5627 H   0  0  0  0  0  0  0  0  0  0  0  0
    7.8062   44.4218  129.8405 H   0  0  0  0  0  0  0  0  0  0  0  0
 15 16  1  0  0  0
 16  1  1  0  0  0
  1  2  1  0  0  0
  2  3  1  0  0  0
  2  4  1  0  0  0
  4  5  1  0  0  0
  4  6  1  0  0  0
  6  7  1  0  0  0
  6  8  1  0  0  0
  8  9  1  0  0  0
  9 10  1  0  0  0
 10 18  1  0  0  0
 18 19  1  0  0  0
 19 20  1  0  0  0
 20 21  1  0  0  0
 20 22  1  0  0  0
 20 23  2  0  0  0
 10  1  1  0  0  0
 15 17  1  0  0  0
  3 11  1  0  0  0
  5 12  1  0  0  0
  7 13  1  0  0  0
  9 14  1  0  0  0
 21 24  1  0  0  0
 22 25  1  0  0  0
M  END
> <minimizedAffinity>
-5.16706

> <CNNscore>
0.3661360741

> <CNNaffinity>
5.0296201706

> <CNN_VS>
1.8415254354

> <CNNaffinity_variance>
2.9684436321

$$$$
[H]OC([H])([H])[C@@]1([H])[C@@]([H])(C([H])([H])C([H])([H])P(=O)(O[H])O[H])N([H])C([H])([H])[C@]([H])(O[H])[C@@]([H])(O[H])[C@]1([H])O[H]


 25 25  0  0  0  0  0  0  0  0999 V2000
   11.3975   43.8838  130.9533 C   0  0  0  0  0  0  0  0  0  0  0  0
   10.0164   43.8285  130.4393 C   0  0  0  0  0  0  0  0  0  0  0  0
   10.0292   43.6371  129.0640 O   0  0  0  0  0  0  0  0  0  0  0  0
    9.2315   42.6262  130.9882 C   0  0  0  0  0  0  0  0  0  0  0  0
    8.2278   42.2362  130.1224 O   0  0  0  0  0  0  0  0  0  0  0  0
    8.7027   43.0683  132.3363 C   0  0  0  0  0  0  0  0  0  0  0  0
    7.7194   42.2244  132.8242 O   0  0  0  0  0  0  0  0  0  0  0  0
    9.9263   43.0838  133.2635 C   0  0  0  0  0  0  0  0  0  0  0  0
   10.4776   44.3955  133.1927 N   0  0  0  0  0  0  0  0  0  0  0  0
   11.5519   44.5750  132.2852 C   0  0  0  0  0  0  0  0  0  0  0  0
    9.9657   42.6662  128.8158 H   0  0  0  0  0  0  0  0  0  0  0  0
    7.4258   42.0173  130.6727 H   0  0  0  0  0  0  0  0  0  0  0  0
    7.1165   42.7160  133.4413 H   0  0  0  0  0  0  0  0  0  0  0  0
    9.6944   45.0754  133.0978 H   0  0  0  0  0  0  0  0  0  0  0  0
   13.6188   44.1771  130.1524 O   0  0  0  0  0  0  0  0  0  0  0  0
   12.2974   44.5534  129.9465 C   0  0  0  0  0  0  0  0  0  0  0  0
   14.2625   44.7712  129.7125 H   0  0  0  0  0  0  0  0  0  0  0  0
   11.8295   46.0572  132.1100 C   0  0  0  0  0  0  0  0  0  0  0  0
   10.8419   46.9047  132.8626 C   0  0  0  0  0  0  0  0  0  0  0  0
    9.5065   47.3986  131.7672 P   0  0  0  0  0  0  0  0  0  0  0  0
    9.0485   48.9780  132.1437 O   0  0  0  0  0  0  0  0  0  0  0  0
    9.9243   47.2341  130.1426 O   0  0  0  0  0  0  0  0  0  0  0  0
    8.3198   46.5011  132.0359 O   0  0  0  0  0  0  0  0  0  0  0  0
    8.1216   49.1396  131.8461 H   0  0  0  0  0  0  0  0  0  0  0  0
   10.4735   48.0182  129.8929 H   0  0  0  0  0  0  0  0  0  0  0  0
 15 16  1  0  0  0
 16  1  1  0  0  0
  1  2  1  0  0  0
  2  3  1  0  0  0
  2  4  1  0  0  0
  4  5  1  0  0  0
  4  6  1  0  0  0
  6  7  1  0  0  0
  6  8  1  0  0  0
  8  9  1  0  0  0
  9 10  1  0  0  0
 10 18  1  0  0  0
 18 19  1  0  0  0
 19 20  1  0  0  0
 20 21  1  0  0  0
 20 22  1  0  0  0
 20 23  2  0  0  0
 10  1  1  0  0  0
 15 17  1  0  0  0
  3 11  1  0  0  0
  5 12  1  0  0  0
  7 13  1  0  0  0
  9 14  1  0  0  0
 21 24  1  0  0  0
 22 25  1  0  0  0
M  END
> <minimizedAffinity>
-5.36587

> <CNNscore>
0.3623437881

> <CNNaffinity>
4.9488220215

> <CNN_VS>
1.7931748629

> <CNNaffinity_variance>
2.5765318871

$$$$
[H]OC([H])([H])[C@@]1([H])[C@@]([H])(C([H])([H])C([H])([H])P(=O)(O[H])O[H])N([H])C([H])([H])[C@]([H])(O[H])[C@@]([H])(O[H])[C@]1([H])O[H]


 25 25  0  0  0  0  0  0  0  0999 V2000
   10.8528   45.4981  130.8127 C   0  0  0  0  0  0  0  0  0  0  0  0
   10.2895   44.4246  131.6525 C   0  0  0  0  0  0  0  0  0  0  0  0
   10.7301   43.1878  131.2004 O   0  0  0  0  0  0  0  0  0  0  0  0
   10.7775   44.4986  133.1084 C   0  0  0  0  0  0  0  0  0  0  0  0
   10.7580   43.2573  133.7148 O   0  0  0  0  0  0  0  0  0  0  0  0
    9.8675   45.4979  133.7908 C   0  0  0  0  0  0  0  0  0  0  0  0
    9.9667   45.4507  135.1711 O   0  0  0  0  0  0  0  0  0  0  0  0
   10.3002   46.8693  133.2531 C   0  0  0  0  0  0  0  0  0  0  0  0
    9.5053   47.1266  132.0993 N   0  0  0  0  0  0  0  0  0  0  0  0
   10.0904   46.7992  130.8502 C   0  0  0  0  0  0  0  0  0  0  0  0
   11.5560   42.8805  131.6817 H   0  0  0  0  0  0  0  0  0  0  0  0
   10.4172   43.3828  134.6433 H   0  0  0  0  0  0  0  0  0  0  0  0
    9.1231   45.7657  135.5895 H   0  0  0  0  0  0  0  0  0  0  0  0
    8.5539   46.7357  132.2630 H   0  0  0  0  0  0  0  0  0  0  0  0
   12.2721   44.6937  129.0807 O   0  0  0  0  0  0  0  0  0  0  0  0
   10.9593   45.0336  129.3827 C   0  0  0  0  0  0  0  0  0  0  0  0
   12.4457   44.6423  128.1174 H   0  0  0  0  0  0  0  0  0  0  0  0
    9.0332   46.8522  129.7620 C   0  0  0  0  0  0  0  0  0  0  0  0
    7.6548   47.0467  130.3295 C   0  0  0  0  0  0  0  0  0  0  0  0
    6.6438   47.9694  129.1660 P   0  0  0  0  0  0  0  0  0  0  0  0
    7.6152   48.4790  127.8843 O   0  0  0  0  0  0  0  0  0  0  0  0
    5.3152   47.0790  128.6342 O   0  0  0  0  0  0  0  0  0  0  0  0
    6.1258   49.2046  129.8675 O   0  0  0  0  0  0  0  0  0  0  0  0
    7.2104   49.2658  127.4473 H   0  0  0  0  0  0  0  0  0  0  0  0
    5.6312   46.4594  127.9305 H   0  0  0  0  0  0  0  0  0  0  0  0
 15 16  1  0  0  0
 16  1  1  0  0  0
  1  2  1  0  0  0
  2  3  1  0  0  0
  2  4  1  0  0  0
  4  5  1  0  0  0
  4  6  1  0  0  0
  6  7  1  0  0  0
  6  8  1  0  0  0
  8  9  1  0  0  0
  9 10  1  0  0  0
 10 18  1  0  0  0
 18 19  1  0  0  0
 19 20  1  0  0  0
 20 21  1  0  0  0
 20 22  1  0  0  0
 20 23  2  0  0  0
 10  1  1  0  0  0
 15 17  1  0  0  0
  3 11  1  0  0  0
  5 12  1  0  0  0
  7 13  1  0  0  0
  9 14  1  0  0  0
 21 24  1  0  0  0
 22 25  1  0  0  0
M  END
> <minimizedAffinity>
-6.07942

> <CNNscore>
0.3460984826

> <CNNaffinity>
5.0583753586

> <CNN_VS>
1.7506960630

> <CNNaffinity_variance>
3.2781829834

$$$$
[H]OC([H])([H])[C@@]1([H])[C@@]([H])(C([H])([H])C([H])([H])P(=O)(O[H])O[H])N([H])C([H])([H])[C@]([H])(O[H])[C@@]([H])(O[H])[C@]1([H])O[H]


 25 25  0  0  0  0  0  0  0  0999 V2000
    7.2456   47.7249  130.1909 C   0  0  0  0  0  0  0  0  0  0  0  0
    8.3299   48.7113  130.0287 C   0  0  0  0  0  0  0  0  0  0  0  0
    7.9247   49.7251  129.1708 O   0  0  0  0  0  0  0  0  0  0  0  0
    8.6713   49.4323  131.3428 C   0  0  0  0  0  0  0  0  0  0  0  0
    9.2057   50.6852  131.1112 O   0  0  0  0  0  0  0  0  0  0  0  0
    9.6282   48.5135  132.0727 C   0  0  0  0  0  0  0  0  0  0  0  0
   10.2749   49.1449  133.1216 O   0  0  0  0  0  0  0  0  0  0  0  0
    8.7630   47.3503  132.5780 C   0  0  0  0  0  0  0  0  0  0  0  0
    8.7828   46.3528  131.5611 N   0  0  0  0  0  0  0  0  0  0  0  0
    7.6926   46.3610  130.6548 C   0  0  0  0  0  0  0  0  0  0  0  0
    7.5352   50.5073  129.6655 H   0  0  0  0  0  0  0  0  0  0  0  0
    9.9563   50.8143  131.7545 H   0  0  0  0  0  0  0  0  0  0  0  0
   11.1488   48.7090  133.3018 H   0  0  0  0  0  0  0  0  0  0  0  0
    9.7277   46.3502  131.1231 H   0  0  0  0  0  0  0  0  0  0  0  0
    5.4200   48.4707  128.8596 O   0  0  0  0  0  0  0  0  0  0  0  0
    6.4834   47.5776  128.8988 C   0  0  0  0  0  0  0  0  0  0  0  0
    4.7491   48.2426  128.1824 H   0  0  0  0  0  0  0  0  0  0  0  0
    7.9993   45.4502  129.4796 C   0  0  0  0  0  0  0  0  0  0  0  0
    9.4615   45.1101  129.4014 C   0  0  0  0  0  0  0  0  0  0  0  0
    9.6764   43.3289  129.4930 P   0  0  0  0  0  0  0  0  0  0  0  0
   11.0396   42.9917  130.4281 O   0  0  0  0  0  0  0  0  0  0  0  0
    8.3010   42.5529  130.0818 O   0  0  0  0  0  0  0  0  0  0  0  0
    9.9400   42.8133  128.0963 O   0  0  0  0  0  0  0  0  0  0  0  0
   11.3935   42.0997  130.1977 H   0  0  0  0  0  0  0  0  0  0  0  0
    8.3030   42.6445  131.0669 H   0  0  0  0  0  0  0  0  0  0  0  0
 15 16  1  0  0  0
 16  1  1  0  0  0
  1  2  1  0  0  0
  2  3  1  0  0  0
  2  4  1  0  0  0
  4  5  1  0  0  0
  4  6  1  0  0  0
  6  7  1  0  0  0
  6  8  1  0  0  0
  8  9  1  0  0  0
  9 10  1  0  0  0
 10 18  1  0  0  0
 18 19  1  0  0  0
 19 20  1  0  0  0
 20 21  1  0  0  0
 20 22  1  0  0  0
 20 23  2  0  0  0
 10  1  1  0  0  0
 15 17  1  0  0  0
  3 11  1  0  0  0
  5 12  1  0  0  0
  7 13  1  0  0  0
  9 14  1  0  0  0
 21 24  1  0  0  0
 22 25  1  0  0  0
M  END
> <minimizedAffinity>
-6.93619

> <CNNscore>
0.3407790959

> <CNNaffinity>
5.0496296883

> <CNN_VS>
1.7208082676

> <CNNaffinity_variance>
2.2992904186

$$$$
[H]OC([H])([H])[C@@]1([H])[C@@]([H])(C([H])([H])C([H])([H])P(=O)(O[H])O[H])N([H])C([H])([H])[C@]([H])(O[H])[C@@]([H])(O[H])[C@]1([H])O[H]


 25 25  0  0  0  0  0  0  0  0999 V2000
    8.5050   44.3378  130.3793 C   0  0  0  0  0  0  0  0  0  0  0  0
    9.7539   44.9029  129.8354 C   0  0  0  0  0  0  0  0  0  0  0  0
   10.2622   44.0684  128.8488 O   0  0  0  0  0  0  0  0  0  0  0  0
    9.5312   46.2479  129.1251 C   0  0  0  0  0  0  0  0  0  0  0  0
   10.4896   46.4760  128.1564 O   0  0  0  0  0  0  0  0  0  0  0  0
    9.5460   47.2926  130.2209 C   0  0  0  0  0  0  0  0  0  0  0  0
    9.6722   48.5797  129.7262 O   0  0  0  0  0  0  0  0  0  0  0  0
    8.2146   47.1153  130.9644 C   0  0  0  0  0  0  0  0  0  0  0  0
    8.4548   46.1894  132.0201 N   0  0  0  0  0  0  0  0  0  0  0  0
    8.1281   44.8361  131.7524 C   0  0  0  0  0  0  0  0  0  0  0  0
    9.9563   44.3367  127.9308 H   0  0  0  0  0  0  0  0  0  0  0  0
   10.7494   47.4370  128.2125 H   0  0  0  0  0  0  0  0  0  0  0  0
   10.0909   49.1716  130.4048 H   0  0  0  0  0  0  0  0  0  0  0  0
    9.4158   46.3528  132.3868 H   0  0  0  0  0  0  0  0  0  0  0  0
    9.9081   42.4247  130.5610 O   0  0  0  0  0  0  0  0  0  0  0  0
    8.5889   42.8331  130.4101 C   0  0  0  0  0  0  0  0  0  0  0  0
   10.0505   41.4841  130.3248 H   0  0  0  0  0  0  0  0  0  0  0  0
    8.7036   43.9475  132.8403 C   0  0  0  0  0  0  0  0  0  0  0  0
    9.4871   44.7367  133.8519 C   0  0  0  0  0  0  0  0  0  0  0  0
   11.2110   44.2329  133.8123 P   0  0  0  0  0  0  0  0  0  0  0  0
   12.1736   45.6004  133.5898 O   0  0  0  0  0  0  0  0  0  0  0  0
   11.6519   43.3696  135.1910 O   0  0  0  0  0  0  0  0  0  0  0  0
   11.4115   43.3317  132.6148 O   0  0  0  0  0  0  0  0  0  0  0  0
   13.0422   45.3407  133.2000 H   0  0  0  0  0  0  0  0  0  0  0  0
   11.8177   44.0236  135.9146 H   0  0  0  0  0  0  0  0  0  0  0  0
 15 16  1  0  0  0
 16  1  1  0  0  0
  1  2  1  0  0  0
  2  3  1  0  0  0
  2  4  1  0  0  0
  4  5  1  0  0  0
  4  6  1  0  0  0
  6  7  1  0  0  0
  6  8  1  0  0  0
  8  9  1  0  0  0
  9 10  1  0  0  0
 10 18  1  0  0  0
 18 19  1  0  0  0
 19 20  1  0  0  0
 20 21  1  0  0  0
 20 22  1  0  0  0
 20 23  2  0  0  0
 10  1  1  0  0  0
 15 17  1  0  0  0
  3 11  1  0  0  0
  5 12  1  0  0  0
  7 13  1  0  0  0
  9 14  1  0  0  0
 21 24  1  0  0  0
 22 25  1  0  0  0
M  END
> <minimizedAffinity>
-5.60923

> <CNNscore>
0.3401565552

> <CNNaffinity>
4.9862527847

> <CNN_VS>
1.6961065531

> <CNNaffinity_variance>
3.5414843559

$$$$
[H]OC([H])([H])[C@@]1([H])[C@@]([H])(C([H])([H])C([H])([H])P(=O)(O[H])O[H])N([H])C([H])([H])[C@]([H])(O[H])[C@@]([H])(O[H])[C@]1([H])O[H]


 25 25  0  0  0  0  0  0  0  0999 V2000
    7.9239   46.9495  130.8820 C   0  0  0  0  0  0  0  0  0  0  0  0
    8.7095   48.1060  130.4127 C   0  0  0  0  0  0  0  0  0  0  0  0
    8.1366   48.6339  129.2633 O   0  0  0  0  0  0  0  0  0  0  0  0
    8.7011   49.2700  131.4168 C   0  0  0  0  0  0  0  0  0  0  0  0
    8.8955   50.4850  130.7881 O   0  0  0  0  0  0  0  0  0  0  0  0
    9.7893   48.9488  132.4193 C   0  0  0  0  0  0  0  0  0  0  0  0
   10.1253   50.0376  133.2059 O   0  0  0  0  0  0  0  0  0  0  0  0
    9.2252   47.8043  133.2731 C   0  0  0  0  0  0  0  0  0  0  0  0
    9.6230   46.5894  132.6445 N   0  0  0  0  0  0  0  0  0  0  0  0
    8.6738   45.9937  131.7762 C   0  0  0  0  0  0  0  0  0  0  0  0
    7.4988   49.3823  129.4669 H   0  0  0  0  0  0  0  0  0  0  0  0
    9.5104   51.0229  131.3596 H   0  0  0  0  0  0  0  0  0  0  0  0
   11.0607   49.9555  133.5289 H   0  0  0  0  0  0  0  0  0  0  0  0
   10.5737   46.7251  132.2414 H   0  0  0  0  0  0  0  0  0  0  0  0
    6.1340   46.6996  129.3344 O   0  0  0  0  0  0  0  0  0  0  0  0
    7.3714   46.1878  129.7045 C   0  0  0  0  0  0  0  0  0  0  0  0
    5.6196   46.0911  128.7635 H   0  0  0  0  0  0  0  0  0  0  0  0
    9.3391   44.8911  130.9724 C   0  0  0  0  0  0  0  0  0  0  0  0
   10.7013   44.5506  131.5094 C   0  0  0  0  0  0  0  0  0  0  0  0
   10.5903   43.1113  132.5787 P   0  0  0  0  0  0  0  0  0  0  0  0
   11.5727   43.3576  133.9279 O   0  0  0  0  0  0  0  0  0  0  0  0
    8.9991   42.7643  133.0129 O   0  0  0  0  0  0  0  0  0  0  0  0
   11.1374   41.9204  131.8248 O   0  0  0  0  0  0  0  0  0  0  0  0
   11.8260   42.4893  134.3227 H   0  0  0  0  0  0  0  0  0  0  0  0
    8.7471   43.3789  133.7462 H   0  0  0  0  0  0  0  0  0  0  0  0
 15 16  1  0  0  0
 16  1  1  0  0  0
  1  2  1  0  0  0
  2  3  1  0  0  0
  2  4  1  0  0  0
  4  5  1  0  0  0
  4  6  1  0  0  0
  6  7  1  0  0  0
  6  8  1  0  0  0
  8  9  1  0  0  0
  9 10  1  0  0  0
 10 18  1  0  0  0
 18 19  1  0  0  0
 19 20  1  0  0  0
 20 21  1  0  0  0
 20 22  1  0  0  0
 20 23  2  0  0  0
 10  1  1  0  0  0
 15 17  1  0  0  0
  3 11  1  0  0  0
  5 12  1  0  0  0
  7 13  1  0  0  0
  9 14  1  0  0  0
 21 24  1  0  0  0
 22 25  1  0  0  0
M  END
> <minimizedAffinity>
-6.57928

> <CNNscore>
0.3382851183

> <CNNaffinity>
5.0511312485

> <CNN_VS>
1.7087225914

> <CNNaffinity_variance>
2.2114002705

$$$$
[H]N=C(N([H])[H])N([H])C([H])([H])C([H])([H])C([H])([H])[C@]([H])(C(=O)N([H])[C@]([H])(C(=O)N([H])[C@]([H])(C(=O)N([H])[H])C([H])([H])c1c([H])c([H])c([H])c([H])c1[H])C([H])([H])c1c([H])c([H])c([H])c([H])c1[H])N([H])C(=O)[C@@]([H])(N([H])[H])C([H])([H])c1c(C([H])([H])[H])c([H])c(O[H])c([H])c1C([H])([H])[H]


 60 62  0  0  0  0  0  0  0  0999 V2000
    6.9911   47.4212  129.6193 C   0  0  0  0  0  0  0  0  0  0  0  0
    7.6807   46.1626  129.8755 C   0  0  0  0  0  0  0  0  0  0  0  0
    7.9614   45.3872  128.8989 O   0  0  0  0  0  0  0  0  0  0  0  0
    8.0797   45.6981  131.1484 N   0  0  0  0  0  0  0  0  0  0  0  0
    7.8708   46.2849  131.9799 H   0  0  0  0  0  0  0  0  0  0  0  0
    8.7621   44.4418  131.3481 C   0  0  0  0  0  0  0  0  0  0  0  0
    9.8391   44.3244  130.2845 C   0  0  0  0  0  0  0  0  0  0  0  0
    9.9396   43.2493  129.6092 O   0  0  0  0  0  0  0  0  0  0  0  0
   10.7490   45.3634  129.9990 N   0  0  0  0  0  0  0  0  0  0  0  0
   10.7348   46.2489  130.5039 H   0  0  0  0  0  0  0  0  0  0  0  0
   11.7721   45.1940  128.9384 C   0  0  0  0  0  0  0  0  0  0  0  0
   11.1462   44.6425  127.7374 C   0  0  0  0  0  0  0  0  0  0  0  0
   10.1174   45.2664  126.9976 N   0  0  0  0  0  0  0  0  0  0  0  0
   11.5322   43.5090  127.2978 O   0  0  0  0  0  0  0  0  0  0  0  0
   10.1329   45.1988  125.9534 H   0  0  0  0  0  0  0  0  0  0  0  0
    9.3542   45.7847  127.4794 H   0  0  0  0  0  0  0  0  0  0  0  0
   12.8005   44.2898  129.5468 C   0  0  0  0  0  0  0  0  0  0  0  0
   12.7442   44.0933  130.9839 C   0  0  0  0  0  0  0  0  0  0  0  0
   12.3372   42.9227  131.5574 C   0  0  0  0  0  0  0  0  0  0  0  0
   12.2806   42.7389  132.9326 C   0  0  0  0  0  0  0  0  0  0  0  0
   12.6507   43.7781  133.7573 C   0  0  0  0  0  0  0  0  0  0  0  0
   13.0613   44.9548  133.1923 C   0  0  0  0  0  0  0  0  0  0  0  0
   13.1185   45.1432  131.8301 C   0  0  0  0  0  0  0  0  0  0  0  0
    7.8990   43.2484  131.2334 C   0  0  0  0  0  0  0  0  0  0  0  0
    7.7765   42.4208  132.4366 C   0  0  0  0  0  0  0  0  0  0  0  0
    6.6518   41.7378  132.8139 C   0  0  0  0  0  0  0  0  0  0  0  0
    6.6078   40.9863  133.9641 C   0  0  0  0  0  0  0  0  0  0  0  0
    7.7005   40.8810  134.8010 C   0  0  0  0  0  0  0  0  0  0  0  0
    8.8341   41.5537  134.4441 C   0  0  0  0  0  0  0  0  0  0  0  0
    8.8690   42.3081  133.2845 C   0  0  0  0  0  0  0  0  0  0  0  0
    8.8266   48.7131  130.7100 C   0  0  0  0  0  0  0  0  0  0  0  0
    9.6250   48.1671  129.9044 O   0  0  0  0  0  0  0  0  0  0  0  0
    7.4588   48.4006  130.6240 N   0  0  0  0  0  0  0  0  0  0  0  0
    6.7768   48.8504  131.2546 H   0  0  0  0  0  0  0  0  0  0  0  0
    9.4309   49.6555  131.6931 C   0  0  0  0  0  0  0  0  0  0  0  0
    9.3610   50.9689  131.1694 N   0  0  0  0  0  0  0  0  0  0  0  0
    9.7184   51.7407  131.7247 H   0  0  0  0  0  0  0  0  0  0  0  0
    9.3604   51.0618  130.1408 H   0  0  0  0  0  0  0  0  0  0  0  0
    8.9077   49.4006  133.0492 C   0  0  0  0  0  0  0  0  0  0  0  0
   11.2285   47.8935  132.0283 C   0  0  0  0  0  0  0  0  0  0  0  0
   10.4067   47.4444  133.1663 C   0  0  0  0  0  0  0  0  0  0  0  0
   10.7457   46.2385  133.7805 C   0  0  0  0  0  0  0  0  0  0  0  0
   10.0172   45.7699  134.8501 C   0  0  0  0  0  0  0  0  0  0  0  0
   10.3826   44.5578  135.4444 O   0  0  0  0  0  0  0  0  0  0  0  0
    8.9413   46.4765  135.3369 C   0  0  0  0  0  0  0  0  0  0  0  0
    8.5691   47.6803  134.7561 C   0  0  0  0  0  0  0  0  0  0  0  0
    7.3975   48.4195  135.2899 C   0  0  0  0  0  0  0  0  0  0  0  0
    9.3175   48.1304  133.6821 C   0  0  0  0  0  0  0  0  0  0  0  0
    9.9017   44.1477  136.2273 H   0  0  0  0  0  0  0  0  0  0  0  0
    5.4915   47.3194  129.8858 C   0  0  0  0  0  0  0  0  0  0  0  0
    4.6735   48.2774  129.0871 C   0  0  0  0  0  0  0  0  0  0  0  0
    5.1214   49.6752  129.4771 C   0  0  0  0  0  0  0  0  0  0  0  0
    6.1216   50.2076  128.5953 N   0  0  0  0  0  0  0  0  0  0  0  0
    6.4009   49.6603  127.7518 H   0  0  0  0  0  0  0  0  0  0  0  0
    6.6801   51.4593  128.9206 C   0  0  0  0  0  0  0  0  0  0  0  0
    7.0688   52.3512  127.8920 N   0  0  0  0  0  0  0  0  0  0  0  0
    6.8319   51.7768  130.1536 N   0  0  0  0  0  0  0  0  0  0  0  0
    6.7271   53.3196  127.9385 H   0  0  0  0  0  0  0  0  0  0  0  0
    7.6884   52.0605  127.0910 H   0  0  0  0  0  0  0  0  0  0  0  0
    7.2467   52.7056  130.3869 H   0  0  0  0  0  0  0  0  0  0  0  0
 40 41  1  0  0  0
 41 42  2  0  0  0
 42 43  1  0  0  0
 43 44  1  0  0  0
 43 45  2  0  0  0
 45 46  1  0  0  0
 46 47  1  0  0  0
 46 48  2  0  0  0
 48 39  1  0  0  0
 39 35  1  0  0  0
 35 36  1  0  0  0
 35 31  1  0  0  0
 31 32  2  0  0  0
 31 33  1  0  0  0
 33  1  1  0  0  0
  1 50  1  0  0  0
 50 51  1  0  0  0
 51 52  1  0  0  0
 52 53  1  0  0  0
 53 55  1  0  0  0
 55 56  1  0  0  0
 55 57  2  0  0  0
  1  2  1  0  0  0
  2  3  2  0  0  0
  2  4  1  0  0  0
  4  6  1  0  0  0
  6 24  1  0  0  0
 24 25  1  0  0  0
 25 26  2  0  0  0
 26 27  1  0  0  0
 27 28  2  0  0  0
 28 29  1  0  0  0
 29 30  2  0  0  0
  6  7  1  0  0  0
  7  8  2  0  0  0
  7  9  1  0  0  0
  9 11  1  0  0  0
 11 17  1  0  0  0
 17 18  1  0  0  0
 18 19  2  0  0  0
 19 20  1  0  0  0
 20 21  2  0  0  0
 21 22  1  0  0  0
 22 23  2  0  0  0
 11 12  1  0  0  0
 12 13  1  0  0  0
 12 14  2  0  0  0
 48 41  1  0  0  0
 30 25  1  0  0  0
 23 18  1  0  0  0
 44 49  1  0  0  0
 36 37  1  0  0  0
 36 38  1  0  0  0
 33 34  1  0  0  0
 53 54  1  0  0  0
 56 58  1  0  0  0
 56 59  1  0  0  0
 57 60  1  0  0  0
  4  5  1  0  0  0
  9 10  1  0  0  0
 13 15  1  0  0  0
 13 16  1  0  0  0
M  END
> <minimizedAffinity>
7.35679

> <CNNscore>
0.4364568293

> <CNNaffinity>
8.2632036209

> <CNN_VS>
3.6065316200

> <CNNaffinity_variance>
0.7324115634

$$$$
[H]N=C(N([H])[H])N([H])C([H])([H])C([H])([H])C([H])([H])[C@]([H])(C(=O)N([H])[C@]([H])(C(=O)N([H])[C@]([H])(C(=O)N([H])[H])C([H])([H])c1c([H])c([H])c([H])c([H])c1[H])C([H])([H])c1c([H])c([H])c([H])c([H])c1[H])N([H])C(=O)[C@@]([H])(N([H])[H])C([H])([H])c1c(C([H])([H])[H])c([H])c(O[H])c([H])c1C([H])([H])[H]


 60 62  0  0  0  0  0  0  0  0999 V2000
    6.6717   46.9903  129.1187 C   0  0  0  0  0  0  0  0  0  0  0  0
    7.9138   46.2853  128.8264 C   0  0  0  0  0  0  0  0  0  0  0  0
    9.0331   46.8505  129.0743 O   0  0  0  0  0  0  0  0  0  0  0  0
    8.0024   44.9898  128.2702 N   0  0  0  0  0  0  0  0  0  0  0  0
    7.1233   44.4855  128.0419 H   0  0  0  0  0  0  0  0  0  0  0  0
    9.2602   44.3349  128.0004 C   0  0  0  0  0  0  0  0  0  0  0  0
    9.4988   43.3167  129.1010 C   0  0  0  0  0  0  0  0  0  0  0  0
   10.0596   42.2084  128.8196 O   0  0  0  0  0  0  0  0  0  0  0  0
    9.1270   43.5393  130.4430 N   0  0  0  0  0  0  0  0  0  0  0  0
    8.6666   44.3985  130.7414 H   0  0  0  0  0  0  0  0  0  0  0  0
    9.3984   42.5109  131.4769 C   0  0  0  0  0  0  0  0  0  0  0  0
    8.1434   42.1118  132.1125 C   0  0  0  0  0  0  0  0  0  0  0  0
    7.9554   41.9378  133.5015 N   0  0  0  0  0  0  0  0  0  0  0  0
    7.1189   41.8912  131.3853 O   0  0  0  0  0  0  0  0  0  0  0  0
    7.0538   42.2482  133.9327 H   0  0  0  0  0  0  0  0  0  0  0  0
    8.6984   41.5073  134.0896 H   0  0  0  0  0  0  0  0  0  0  0  0
   10.3639   43.1660  132.4170 C   0  0  0  0  0  0  0  0  0  0  0  0
    9.8220   44.1241  133.3633 C   0  0  0  0  0  0  0  0  0  0  0  0
    8.6357   44.7715  133.1669 C   0  0  0  0  0  0  0  0  0  0  0  0
    8.1218   45.6905  134.0721 C   0  0  0  0  0  0  0  0  0  0  0  0
    8.8346   45.9633  135.2186 C   0  0  0  0  0  0  0  0  0  0  0  0
   10.0238   45.3187  135.4252 C   0  0  0  0  0  0  0  0  0  0  0  0
   10.5388   44.4078  134.5313 C   0  0  0  0  0  0  0  0  0  0  0  0
   10.4298   45.2368  127.9746 C   0  0  0  0  0  0  0  0  0  0  0  0
   11.5122   44.9190  128.9101 C   0  0  0  0  0  0  0  0  0  0  0  0
   12.6899   44.3062  128.5760 C   0  0  0  0  0  0  0  0  0  0  0  0
   13.6586   44.0313  129.5118 C   0  0  0  0  0  0  0  0  0  0  0  0
   13.4930   44.3610  130.8420 C   0  0  0  0  0  0  0  0  0  0  0  0
   12.3257   44.9738  131.1982 C   0  0  0  0  0  0  0  0  0  0  0  0
   11.3560   45.2463  130.2493 C   0  0  0  0  0  0  0  0  0  0  0  0
    7.3591   49.3764  129.3676 C   0  0  0  0  0  0  0  0  0  0  0  0
    7.3549   49.4589  128.1116 O   0  0  0  0  0  0  0  0  0  0  0  0
    7.0067   48.1547  129.9669 N   0  0  0  0  0  0  0  0  0  0  0  0
    6.9775   48.0632  130.9945 H   0  0  0  0  0  0  0  0  0  0  0  0
    7.7465   50.6125  130.1035 C   0  0  0  0  0  0  0  0  0  0  0  0
    6.9241   51.6798  129.6690 N   0  0  0  0  0  0  0  0  0  0  0  0
    7.0475   52.5981  130.0850 H   0  0  0  0  0  0  0  0  0  0  0  0
    6.5534   51.6213  128.7068 H   0  0  0  0  0  0  0  0  0  0  0  0
    7.8599   50.3441  131.5502 C   0  0  0  0  0  0  0  0  0  0  0  0
   10.0753   49.7496  129.6961 C   0  0  0  0  0  0  0  0  0  0  0  0
    9.9994   49.2144  131.0671 C   0  0  0  0  0  0  0  0  0  0  0  0
   11.0282   48.3767  131.4986 C   0  0  0  0  0  0  0  0  0  0  0  0
   11.0135   47.8495  132.7699 C   0  0  0  0  0  0  0  0  0  0  0  0
   12.0598   47.0135  133.1727 O   0  0  0  0  0  0  0  0  0  0  0  0
    9.9878   48.1346  133.6419 C   0  0  0  0  0  0  0  0  0  0  0  0
    8.9443   48.9628  133.2542 C   0  0  0  0  0  0  0  0  0  0  0  0
    7.8420   49.2467  134.2072 C   0  0  0  0  0  0  0  0  0  0  0  0
    8.9820   49.4807  131.9710 C   0  0  0  0  0  0  0  0  0  0  0  0
   12.1218   46.5885  134.0826 H   0  0  0  0  0  0  0  0  0  0  0  0
    5.7343   46.1636  129.9951 C   0  0  0  0  0  0  0  0  0  0  0  0
    4.4178   46.8172  130.2490 C   0  0  0  0  0  0  0  0  0  0  0  0
    3.3823   46.0582  129.4377 C   0  0  0  0  0  0  0  0  0  0  0  0
    2.1984   45.7517  130.1899 N   0  0  0  0  0  0  0  0  0  0  0  0
    2.2915   45.4328  131.1792 H   0  0  0  0  0  0  0  0  0  0  0  0
    0.9561   45.9009  129.5427 C   0  0  0  0  0  0  0  0  0  0  0  0
    0.2498   47.1244  129.6369 N   0  0  0  0  0  0  0  0  0  0  0  0
    0.4762   44.9186  128.8727 N   0  0  0  0  0  0  0  0  0  0  0  0
   -0.0782   47.5604  128.7656 H   0  0  0  0  0  0  0  0  0  0  0  0
    0.0513   47.5973  130.5572 H   0  0  0  0  0  0  0  0  0  0  0  0
   -0.4448   45.0363  128.3962 H   0  0  0  0  0  0  0  0  0  0  0  0
 40 41  1  0  0  0
 41 42  2  0  0  0
 42 43  1  0  0  0
 43 44  1  0  0  0
 43 45  2  0  0  0
 45 46  1  0  0  0
 46 47  1  0  0  0
 46 48  2  0  0  0
 48 39  1  0  0  0
 39 35  1  0  0  0
 35 36  1  0  0  0
 35 31  1  0  0  0
 31 32  2  0  0  0
 31 33  1  0  0  0
 33  1  1  0  0  0
  1 50  1  0  0  0
 50 51  1  0  0  0
 51 52  1  0  0  0
 52 53  1  0  0  0
 53 55  1  0  0  0
 55 56  1  0  0  0
 55 57  2  0  0  0
  1  2  1  0  0  0
  2  3  2  0  0  0
  2  4  1  0  0  0
  4  6  1  0  0  0
  6 24  1  0  0  0
 24 25  1  0  0  0
 25 26  2  0  0  0
 26 27  1  0  0  0
 27 28  2  0  0  0
 28 29  1  0  0  0
 29 30  2  0  0  0
  6  7  1  0  0  0
  7  8  2  0  0  0
  7  9  1  0  0  0
  9 11  1  0  0  0
 11 17  1  0  0  0
 17 18  1  0  0  0
 18 19  2  0  0  0
 19 20  1  0  0  0
 20 21  2  0  0  0
 21 22  1  0  0  0
 22 23  2  0  0  0
 11 12  1  0  0  0
 12 13  1  0  0  0
 12 14  2  0  0  0
 48 41  1  0  0  0
 30 25  1  0  0  0
 23 18  1  0  0  0
 44 49  1  0  0  0
 36 37  1  0  0  0
 36 38  1  0  0  0
 33 34  1  0  0  0
 53 54  1  0  0  0
 56 58  1  0  0  0
 56 59  1  0  0  0
 57 60  1  0  0  0
  4  5  1  0  0  0
  9 10  1  0  0  0
 13 15  1  0  0  0
 13 16  1  0  0  0
M  END
> <minimizedAffinity>
6.59417

> <CNNscore>
0.4086862206

> <CNNaffinity>
8.2056369781

> <CNN_VS>
3.3535308838

> <CNNaffinity_variance>
0.4231991768

$$$$
[H]N=C(N([H])[H])N([H])C([H])([H])C([H])([H])C([H])([H])[C@]([H])(C(=O)N([H])[C@]([H])(C(=O)N([H])[C@]([H])(C(=O)N([H])[H])C([H])([H])c1c([H])c([H])c([H])c([H])c1[H])C([H])([H])c1c([H])c([H])c([H])c([H])c1[H])N([H])C(=O)[C@@]([H])(N([H])[H])C([H])([H])c1c(C([H])([H])[H])c([H])c(O[H])c([H])c1C([H])([H])[H]


 60 62  0  0  0  0  0  0  0  0999 V2000
   11.9711   44.0648  132.3899 C   0  0  0  0  0  0  0  0  0  0  0  0
   12.0690   44.9758  131.2560 C   0  0  0  0  0  0  0  0  0  0  0  0
   13.0112   44.8251  130.4056 O   0  0  0  0  0  0  0  0  0  0  0  0
   11.1917   46.0528  130.9996 N   0  0  0  0  0  0  0  0  0  0  0  0
   10.4109   46.2267  131.6626 H   0  0  0  0  0  0  0  0  0  0  0  0
   11.3325   46.9267  129.8594 C   0  0  0  0  0  0  0  0  0  0  0  0
   10.6723   48.2496  130.2042 C   0  0  0  0  0  0  0  0  0  0  0  0
   11.1383   48.9537  131.1577 O   0  0  0  0  0  0  0  0  0  0  0  0
    9.5511   48.7492  129.5098 N   0  0  0  0  0  0  0  0  0  0  0  0
    9.1185   48.2375  128.7415 H   0  0  0  0  0  0  0  0  0  0  0  0
    8.9574   50.0557  129.8852 C   0  0  0  0  0  0  0  0  0  0  0  0
    8.6941   50.0792  131.3233 C   0  0  0  0  0  0  0  0  0  0  0  0
    9.3948   50.8649  132.2650 N   0  0  0  0  0  0  0  0  0  0  0  0
    7.7689   49.3416  131.7998 O   0  0  0  0  0  0  0  0  0  0  0  0
    8.8633   51.3053  133.0517 H   0  0  0  0  0  0  0  0  0  0  0  0
   10.4228   51.0050  132.1820 H   0  0  0  0  0  0  0  0  0  0  0  0
    7.7194   50.1624  129.0478 C   0  0  0  0  0  0  0  0  0  0  0  0
    6.7643   49.0726  129.1338 C   0  0  0  0  0  0  0  0  0  0  0  0
    7.0947   47.7739  128.8712 C   0  0  0  0  0  0  0  0  0  0  0  0
    6.1779   46.7340  128.9505 C   0  0  0  0  0  0  0  0  0  0  0  0
    4.8792   47.0195  129.3096 C   0  0  0  0  0  0  0  0  0  0  0  0
    4.5385   48.3178  129.5761 C   0  0  0  0  0  0  0  0  0  0  0  0
    5.4425   49.3526  129.4982 C   0  0  0  0  0  0  0  0  0  0  0  0
   10.6989   46.4286  128.6213 C   0  0  0  0  0  0  0  0  0  0  0  0
   10.0909   45.0974  128.6964 C   0  0  0  0  0  0  0  0  0  0  0  0
    8.9849   44.7752  129.4361 C   0  0  0  0  0  0  0  0  0  0  0  0
    8.4747   43.4991  129.4648 C   0  0  0  0  0  0  0  0  0  0  0  0
    9.0535   42.4727  128.7456 C   0  0  0  0  0  0  0  0  0  0  0  0
   10.1578   42.7713  127.9998 C   0  0  0  0  0  0  0  0  0  0  0  0
   10.6647   44.0587  127.9772 C   0  0  0  0  0  0  0  0  0  0  0  0
    9.6756   43.1301  132.6815 C   0  0  0  0  0  0  0  0  0  0  0  0
   10.0544   42.1229  132.0284 O   0  0  0  0  0  0  0  0  0  0  0  0
   10.5963   44.1636  132.9263 N   0  0  0  0  0  0  0  0  0  0  0  0
   10.3223   44.9908  133.4794 H   0  0  0  0  0  0  0  0  0  0  0  0
    8.2571   43.1195  133.1367 C   0  0  0  0  0  0  0  0  0  0  0  0
    7.8234   41.7766  133.2496 N   0  0  0  0  0  0  0  0  0  0  0  0
    6.8766   41.5892  133.5660 H   0  0  0  0  0  0  0  0  0  0  0  0
    8.2830   41.0846  132.6360 H   0  0  0  0  0  0  0  0  0  0  0  0
    8.0713   44.0270  134.2856 C   0  0  0  0  0  0  0  0  0  0  0  0
    7.3549   45.8653  132.0932 C   0  0  0  0  0  0  0  0  0  0  0  0
    8.3525   46.1880  133.1289 C   0  0  0  0  0  0  0  0  0  0  0  0
    8.9927   47.4254  133.0554 C   0  0  0  0  0  0  0  0  0  0  0  0
    9.9309   47.7838  133.9965 C   0  0  0  0  0  0  0  0  0  0  0  0
   10.5547   49.0315  133.8956 O   0  0  0  0  0  0  0  0  0  0  0  0
   10.2587   46.9337  135.0278 C   0  0  0  0  0  0  0  0  0  0  0  0
    9.6467   45.6935  135.1390 C   0  0  0  0  0  0  0  0  0  0  0  0
   10.0248   44.7876  136.2526 C   0  0  0  0  0  0  0  0  0  0  0  0
    8.7065   45.3563  134.1805 C   0  0  0  0  0  0  0  0  0  0  0  0
   11.2501   49.3666  134.5410 H   0  0  0  0  0  0  0  0  0  0  0  0
   12.8471   44.5065  133.5594 C   0  0  0  0  0  0  0  0  0  0  0  0
   13.0404   45.9833  133.6402 C   0  0  0  0  0  0  0  0  0  0  0  0
   13.6892   46.2726  134.9827 C   0  0  0  0  0  0  0  0  0  0  0  0
   14.1416   47.6298  135.1034 N   0  0  0  0  0  0  0  0  0  0  0  0
   14.1904   48.2287  134.2501 H   0  0  0  0  0  0  0  0  0  0  0  0
   14.4999   48.0875  136.3866 C   0  0  0  0  0  0  0  0  0  0  0  0
   13.7543   49.1201  137.0050 N   0  0  0  0  0  0  0  0  0  0  0  0
   15.5055   47.5601  136.9823 N   0  0  0  0  0  0  0  0  0  0  0  0
   13.4160   48.9636  137.9631 H   0  0  0  0  0  0  0  0  0  0  0  0
   13.5373   50.0318  136.5236 H   0  0  0  0  0  0  0  0  0  0  0  0
   15.7652   47.9044  137.9325 H   0  0  0  0  0  0  0  0  0  0  0  0
 40 41  1  0  0  0
 41 42  2  0  0  0
 42 43  1  0  0  0
 43 44  1  0  0  0
 43 45  2  0  0  0
 45 46  1  0  0  0
 46 47  1  0  0  0
 46 48  2  0  0  0
 48 39  1  0  0  0
 39 35  1  0  0  0
 35 36  1  0  0  0
 35 31  1  0  0  0
 31 32  2  0  0  0
 31 33  1  0  0  0
 33  1  1  0  0  0
  1 50  1  0  0  0
 50 51  1  0  0  0
 51 52  1  0  0  0
 52 53  1  0  0  0
 53 55  1  0  0  0
 55 56  1  0  0  0
 55 57  2  0  0  0
  1  2  1  0  0  0
  2  3  2  0  0  0
  2  4  1  0  0  0
  4  6  1  0  0  0
  6 24  1  0  0  0
 24 25  1  0  0  0
 25 26  2  0  0  0
 26 27  1  0  0  0
 27 28  2  0  0  0
 28 29  1  0  0  0
 29 30  2  0  0  0
  6  7  1  0  0  0
  7  8  2  0  0  0
  7  9  1  0  0  0
  9 11  1  0  0  0
 11 17  1  0  0  0
 17 18  1  0  0  0
 18 19  2  0  0  0
 19 20  1  0  0  0
 20 21  2  0  0  0
 21 22  1  0  0  0
 22 23  2  0  0  0
 11 12  1  0  0  0
 12 13  1  0  0  0
 12 14  2  0  0  0
 48 41  1  0  0  0
 30 25  1  0  0  0
 23 18  1  0  0  0
 44 49  1  0  0  0
 36 37  1  0  0  0
 36 38  1  0  0  0
 33 34  1  0  0  0
 53 54  1  0  0  0
 56 58  1  0  0  0
 56 59  1  0  0  0
 57 60  1  0  0  0
  4  5  1  0  0  0
  9 10  1  0  0  0
 13 15  1  0  0  0
 13 16  1  0  0  0
M  END
> <minimizedAffinity>
6.12372

> <CNNscore>
0.4068606198

> <CNNaffinity>
8.2265539169

> <CNN_VS>
3.3470609188

> <CNNaffinity_variance>
0.4382349849

$$$$
[H]N=C(N([H])[H])N([H])C([H])([H])C([H])([H])C([H])([H])[C@]([H])(C(=O)N([H])[C@]([H])(C(=O)N([H])[C@]([H])(C(=O)N([H])[H])C([H])([H])c1c([H])c([H])c([H])c([H])c1[H])C([H])([H])c1c([H])c([H])c([H])c([H])c1[H])N([H])C(=O)[C@@]([H])(N([H])[H])C([H])([H])c1c(C([H])([H])[H])c([H])c(O[H])c([H])c1C([H])([H])[H]


 60 62  0  0  0  0  0  0  0  0999 V2000
    7.5846   46.3709  130.1781 C   0  0  0  0  0  0  0  0  0  0  0  0
    7.9139   45.1129  130.8371 C   0  0  0  0  0  0  0  0  0  0  0  0
    7.8984   44.0259  130.1650 O   0  0  0  0  0  0  0  0  0  0  0  0
    8.2574   44.9742  132.2003 N   0  0  0  0  0  0  0  0  0  0  0  0
    8.2790   45.8247  132.7967 H   0  0  0  0  0  0  0  0  0  0  0  0
    8.5764   43.7029  132.8049 C   0  0  0  0  0  0  0  0  0  0  0  0
   10.0354   43.4025  132.5117 C   0  0  0  0  0  0  0  0  0  0  0  0
   10.6242   42.4695  133.1480 O   0  0  0  0  0  0  0  0  0  0  0  0
   10.7855   44.1144  131.5528 N   0  0  0  0  0  0  0  0  0  0  0  0
   10.3843   44.8792  131.0112 H   0  0  0  0  0  0  0  0  0  0  0  0
   12.2052   43.7658  131.3015 C   0  0  0  0  0  0  0  0  0  0  0  0
   13.0402   44.3098  132.3716 C   0  0  0  0  0  0  0  0  0  0  0  0
   13.2264   43.7150  133.6391 N   0  0  0  0  0  0  0  0  0  0  0  0
   13.6601   45.4083  132.1814 O   0  0  0  0  0  0  0  0  0  0  0  0
   14.1753   43.7489  134.0792 H   0  0  0  0  0  0  0  0  0  0  0  0
   12.4352   43.2507  134.1309 H   0  0  0  0  0  0  0  0  0  0  0  0
   12.5042   44.3484  129.9538 C   0  0  0  0  0  0  0  0  0  0  0  0
   11.4277   44.3546  128.9799 C   0  0  0  0  0  0  0  0  0  0  0  0
   10.7658   43.2227  128.5984 C   0  0  0  0  0  0  0  0  0  0  0  0
    9.7391   43.2311  127.6636 C   0  0  0  0  0  0  0  0  0  0  0  0
    9.3683   44.4296  127.0951 C   0  0  0  0  0  0  0  0  0  0  0  0
   10.0246   45.5696  127.4718 C   0  0  0  0  0  0  0  0  0  0  0  0
   11.0436   45.5674  128.3970 C   0  0  0  0  0  0  0  0  0  0  0  0
    7.7827   42.5647  132.2979 C   0  0  0  0  0  0  0  0  0  0  0  0
    7.1357   41.7257  133.3104 C   0  0  0  0  0  0  0  0  0  0  0  0
    5.7941   41.4614  133.3768 C   0  0  0  0  0  0  0  0  0  0  0  0
    5.2559   40.6698  134.3633 C   0  0  0  0  0  0  0  0  0  0  0  0
    6.0442   40.0977  135.3415 C   0  0  0  0  0  0  0  0  0  0  0  0
    7.3860   40.3472  135.2947 C   0  0  0  0  0  0  0  0  0  0  0  0
    7.9189   41.1457  134.2980 C   0  0  0  0  0  0  0  0  0  0  0  0
    8.9929   48.3515  130.7452 C   0  0  0  0  0  0  0  0  0  0  0  0
    9.5661   48.2021  129.6345 O   0  0  0  0  0  0  0  0  0  0  0  0
    7.9571   47.4686  131.0966 N   0  0  0  0  0  0  0  0  0  0  0  0
    7.4522   47.5806  131.9897 H   0  0  0  0  0  0  0  0  0  0  0  0
    9.4852   49.4756  131.5899 C   0  0  0  0  0  0  0  0  0  0  0  0
    9.1627   50.6994  130.9553 N   0  0  0  0  0  0  0  0  0  0  0  0
    9.4159   51.5719  131.4094 H   0  0  0  0  0  0  0  0  0  0  0  0
    9.0858   50.6849  129.9255 H   0  0  0  0  0  0  0  0  0  0  0  0
    9.0937   49.2792  132.9992 C   0  0  0  0  0  0  0  0  0  0  0  0
   11.5368   47.9459  132.0231 C   0  0  0  0  0  0  0  0  0  0  0  0
   10.7405   47.4491  133.1593 C   0  0  0  0  0  0  0  0  0  0  0  0
   11.1667   46.2822  133.7942 C   0  0  0  0  0  0  0  0  0  0  0  0
   10.4656   45.7723  134.8633 C   0  0  0  0  0  0  0  0  0  0  0  0
   10.9187   44.6010  135.4787 O   0  0  0  0  0  0  0  0  0  0  0  0
    9.3322   46.3984  135.3292 C   0  0  0  0  0  0  0  0  0  0  0  0
    8.8728   47.5611  134.7274 C   0  0  0  0  0  0  0  0  0  0  0  0
    7.6409   48.2129  135.2389 C   0  0  0  0  0  0  0  0  0  0  0  0
    9.5952   48.0541  133.6544 C   0  0  0  0  0  0  0  0  0  0  0  0
   10.4631   44.1650  136.2627 H   0  0  0  0  0  0  0  0  0  0  0  0
    6.0793   46.5477  129.9966 C   0  0  0  0  0  0  0  0  0  0  0  0
    5.7002   47.1632  128.6920 C   0  0  0  0  0  0  0  0  0  0  0  0
    5.4741   48.6430  128.9491 C   0  0  0  0  0  0  0  0  0  0  0  0
    6.6478   49.4361  128.7157 N   0  0  0  0  0  0  0  0  0  0  0  0
    7.4433   49.0240  128.1805 H   0  0  0  0  0  0  0  0  0  0  0  0
    6.6626   50.7480  129.2287 C   0  0  0  0  0  0  0  0  0  0  0  0
    6.2993   50.9866  130.5762 N   0  0  0  0  0  0  0  0  0  0  0  0
    7.0061   51.7170  128.4625 N   0  0  0  0  0  0  0  0  0  0  0  0
    6.9398   51.5422  131.1575 H   0  0  0  0  0  0  0  0  0  0  0  0
    5.4065   50.6194  130.9983 H   0  0  0  0  0  0  0  0  0  0  0  0
    7.0143   52.6862  128.8494 H   0  0  0  0  0  0  0  0  0  0  0  0
 40 41  1  0  0  0
 41 42  2  0  0  0
 42 43  1  0  0  0
 43 44  1  0  0  0
 43 45  2  0  0  0
 45 46  1  0  0  0
 46 47  1  0  0  0
 46 48  2  0  0  0
 48 39  1  0  0  0
 39 35  1  0  0  0
 35 36  1  0  0  0
 35 31  1  0  0  0
 31 32  2  0  0  0
 31 33  1  0  0  0
 33  1  1  0  0  0
  1 50  1  0  0  0
 50 51  1  0  0  0
 51 52  1  0  0  0
 52 53  1  0  0  0
 53 55  1  0  0  0
 55 56  1  0  0  0
 55 57  2  0  0  0
  1  2  1  0  0  0
  2  3  2  0  0  0
  2  4  1  0  0  0
  4  6  1  0  0  0
  6 24  1  0  0  0
 24 25  1  0  0  0
 25 26  2  0  0  0
 26 27  1  0  0  0
 27 28  2  0  0  0
 28 29  1  0  0  0
 29 30  2  0  0  0
  6  7  1  0  0  0
  7  8  2  0  0  0
  7  9  1  0  0  0
  9 11  1  0  0  0
 11 17  1  0  0  0
 17 18  1  0  0  0
 18 19  2  0  0  0
 19 20  1  0  0  0
 20 21  2  0  0  0
 21 22  1  0  0  0
 22 23  2  0  0  0
 11 12  1  0  0  0
 12 13  1  0  0  0
 12 14  2  0  0  0
 48 41  1  0  0  0
 30 25  1  0  0  0
 23 18  1  0  0  0
 44 49  1  0  0  0
 36 37  1  0  0  0
 36 38  1  0  0  0
 33 34  1  0  0  0
 53 54  1  0  0  0
 56 58  1  0  0  0
 56 59  1  0  0  0
 57 60  1  0  0  0
  4  5  1  0  0  0
  9 10  1  0  0  0
 13 15  1  0  0  0
 13 16  1  0  0  0
M  END
> <minimizedAffinity>
8.89450

> <CNNscore>
0.3957951069

> <CNNaffinity>
8.1946392059

> <CNN_VS>
3.2433981895

> <CNNaffinity_variance>
0.4754353464

$$$$
[H]N=C(N([H])[H])N([H])C([H])([H])C([H])([H])C([H])([H])[C@]([H])(C(=O)N([H])[C@]([H])(C(=O)N([H])[C@]([H])(C(=O)N([H])[H])C([H])([H])c1c([H])c([H])c([H])c([H])c1[H])C([H])([H])c1c([H])c([H])c([H])c([H])c1[H])N([H])C(=O)[C@@]([H])(N([H])[H])C([H])([H])c1c(C([H])([H])[H])c([H])c(O[H])c([H])c1C([H])([H])[H]


 60 62  0  0  0  0  0  0  0  0999 V2000
   12.4419   45.5783  132.1579 C   0  0  0  0  0  0  0  0  0  0  0  0
   11.5457   46.2847  131.2507 C   0  0  0  0  0  0  0  0  0  0  0  0
   10.4069   46.6833  131.6727 O   0  0  0  0  0  0  0  0  0  0  0  0
   11.8239   46.5784  129.8972 N   0  0  0  0  0  0  0  0  0  0  0  0
   12.7328   46.2715  129.4985 H   0  0  0  0  0  0  0  0  0  0  0  0
   10.9004   47.2828  129.0402 C   0  0  0  0  0  0  0  0  0  0  0  0
   10.5603   48.6024  129.7095 C   0  0  0  0  0  0  0  0  0  0  0  0
   11.3358   49.6012  129.5578 O   0  0  0  0  0  0  0  0  0  0  0  0
    9.4086   48.7834  130.5030 N   0  0  0  0  0  0  0  0  0  0  0  0
    8.7467   48.0277  130.6761 H   0  0  0  0  0  0  0  0  0  0  0  0
    9.1232   50.1013  131.1209 C   0  0  0  0  0  0  0  0  0  0  0  0
    9.6092   50.1115  132.5000 C   0  0  0  0  0  0  0  0  0  0  0  0
   10.0804   48.9813  133.2040 N   0  0  0  0  0  0  0  0  0  0  0  0
    9.6183   51.2092  133.1497 O   0  0  0  0  0  0  0  0  0  0  0  0
   10.9021   49.0898  133.8430 H   0  0  0  0  0  0  0  0  0  0  0  0
    9.6201   48.0545  133.0926 H   0  0  0  0  0  0  0  0  0  0  0  0
    7.6371   50.2571  131.0086 C   0  0  0  0  0  0  0  0  0  0  0  0
    6.9046   49.1844  130.3605 C   0  0  0  0  0  0  0  0  0  0  0  0
    7.1154   47.8652  130.6437 C   0  0  0  0  0  0  0  0  0  0  0  0
    6.4159   46.8411  130.0191 C   0  0  0  0  0  0  0  0  0  0  0  0
    5.4677   47.1646  129.0739 C   0  0  0  0  0  0  0  0  0  0  0  0
    5.2483   48.4838  128.7841 C   0  0  0  0  0  0  0  0  0  0  0  0
    5.9390   49.5030  129.3990 C   0  0  0  0  0  0  0  0  0  0  0  0
    9.6279   46.5741  128.7934 C   0  0  0  0  0  0  0  0  0  0  0  0
    9.7252   45.1287  128.5721 C   0  0  0  0  0  0  0  0  0  0  0  0
   10.6273   44.5156  127.7449 C   0  0  0  0  0  0  0  0  0  0  0  0
   10.6536   43.1511  127.5801 C   0  0  0  0  0  0  0  0  0  0  0  0
    9.7684   42.3256  128.2436 C   0  0  0  0  0  0  0  0  0  0  0  0
    8.8596   42.9155  129.0749 C   0  0  0  0  0  0  0  0  0  0  0  0
    8.8402   44.2899  129.2344 C   0  0  0  0  0  0  0  0  0  0  0  0
   11.4256   43.3312  131.7763 C   0  0  0  0  0  0  0  0  0  0  0  0
   11.8030   43.4167  130.5785 O   0  0  0  0  0  0  0  0  0  0  0  0
   11.7245   44.3851  132.6571 N   0  0  0  0  0  0  0  0  0  0  0  0
   11.4496   44.3331  133.6505 H   0  0  0  0  0  0  0  0  0  0  0  0
   10.6842   42.0918  132.1422 C   0  0  0  0  0  0  0  0  0  0  0  0
   11.5407   40.9783  131.9669 N   0  0  0  0  0  0  0  0  0  0  0  0
   11.1937   40.0498  132.1882 H   0  0  0  0  0  0  0  0  0  0  0  0
   12.2845   41.0691  131.2561 H   0  0  0  0  0  0  0  0  0  0  0  0
    9.9912   42.2609  133.4341 C   0  0  0  0  0  0  0  0  0  0  0  0
   11.2466   43.7310  135.6617 C   0  0  0  0  0  0  0  0  0  0  0  0
   10.1624   44.2865  134.8323 C   0  0  0  0  0  0  0  0  0  0  0  0
    9.7063   45.5711  135.1292 C   0  0  0  0  0  0  0  0  0  0  0  0
    8.6985   46.1438  134.3870 C   0  0  0  0  0  0  0  0  0  0  0  0
    8.2638   47.4334  134.7093 O   0  0  0  0  0  0  0  0  0  0  0  0
    8.1189   45.4656  133.3392 C   0  0  0  0  0  0  0  0  0  0  0  0
    8.5416   44.1860  133.0094 C   0  0  0  0  0  0  0  0  0  0  0  0
    7.8936   43.4683  131.8830 C   0  0  0  0  0  0  0  0  0  0  0  0
    9.5566   43.6319  133.7705 C   0  0  0  0  0  0  0  0  0  0  0  0
    7.5333   47.9201  134.2175 H   0  0  0  0  0  0  0  0  0  0  0  0
   12.7292   46.3821  133.4234 C   0  0  0  0  0  0  0  0  0  0  0  0
   13.3642   45.5828  134.5110 C   0  0  0  0  0  0  0  0  0  0  0  0
   14.4804   46.4331  135.0921 C   0  0  0  0  0  0  0  0  0  0  0  0
   14.0614   47.7718  135.3978 N   0  0  0  0  0  0  0  0  0  0  0  0
   13.5051   48.3050  134.6940 H   0  0  0  0  0  0  0  0  0  0  0  0
   14.4285   48.3015  136.6504 C   0  0  0  0  0  0  0  0  0  0  0  0
   13.6444   49.3179  137.2479 N   0  0  0  0  0  0  0  0  0  0  0  0
   15.4770   47.8542  137.2375 N   0  0  0  0  0  0  0  0  0  0  0  0
   13.3410   49.1839  138.2209 H   0  0  0  0  0  0  0  0  0  0  0  0
   13.3651   50.1956  136.7364 H   0  0  0  0  0  0  0  0  0  0  0  0
   15.7430   48.2516  138.1650 H   0  0  0  0  0  0  0  0  0  0  0  0
 40 41  1  0  0  0
 41 42  2  0  0  0
 42 43  1  0  0  0
 43 44  1  0  0  0
 43 45  2  0  0  0
 45 46  1  0  0  0
 46 47  1  0  0  0
 46 48  2  0  0  0
 48 39  1  0  0  0
 39 35  1  0  0  0
 35 36  1  0  0  0
 35 31  1  0  0  0
 31 32  2  0  0  0
 31 33  1  0  0  0
 33  1  1  0  0  0
  1 50  1  0  0  0
 50 51  1  0  0  0
 51 52  1  0  0  0
 52 53  1  0  0  0
 53 55  1  0  0  0
 55 56  1  0  0  0
 55 57  2  0  0  0
  1  2  1  0  0  0
  2  3  2  0  0  0
  2  4  1  0  0  0
  4  6  1  0  0  0
  6 24  1  0  0  0
 24 25  1  0  0  0
 25 26  2  0  0  0
 26 27  1  0  0  0
 27 28  2  0  0  0
 28 29  1  0  0  0
 29 30  2  0  0  0
  6  7  1  0  0  0
  7  8  2  0  0  0
  7  9  1  0  0  0
  9 11  1  0  0  0
 11 17  1  0  0  0
 17 18  1  0  0  0
 18 19  2  0  0  0
 19 20  1  0  0  0
 20 21  2  0  0  0
 21 22  1  0  0  0
 22 23  2  0  0  0
 11 12  1  0  0  0
 12 13  1  0  0  0
 12 14  2  0  0  0
 48 41  1  0  0  0
 30 25  1  0  0  0
 23 18  1  0  0  0
 44 49  1  0  0  0
 36 37  1  0  0  0
 36 38  1  0  0  0
 33 34  1  0  0  0
 53 54  1  0  0  0
 56 58  1  0  0  0
 56 59  1  0  0  0
 57 60  1  0  0  0
  4  5  1  0  0  0
  9 10  1  0  0  0
 13 15  1  0  0  0
 13 16  1  0  0  0
M  END
> <minimizedAffinity>
6.59147

> <CNNscore>
0.3813705146

> <CNNaffinity>
8.2124013901

> <CNN_VS>
3.1319677830

> <CNNaffinity_variance>
0.5277665854

$$$$
[H]N=C(N([H])[H])N([H])C([H])([H])C([H])([H])C([H])([H])[C@]([H])(C(=O)N([H])[C@]([H])(C(=O)N([H])[C@]([H])(C(=O)N([H])[H])C([H])([H])c1c([H])c([H])c([H])c([H])c1[H])C([H])([H])c1c([H])c([H])c([H])c([H])c1[H])N([H])C(=O)[C@@]([H])(N([H])[H])C([H])([H])c1c(C([H])([H])[H])c([H])c(O[H])c([H])c1C([H])([H])[H]


 60 62  0  0  0  0  0  0  0  0999 V2000
   10.0316   44.7935  133.4530 C   0  0  0  0  0  0  0  0  0  0  0  0
    9.5619   46.1692  133.5623 C   0  0  0  0  0  0  0  0  0  0  0  0
    8.7017   46.4726  134.4577 O   0  0  0  0  0  0  0  0  0  0  0  0
    9.9790   47.2391  132.7396 N   0  0  0  0  0  0  0  0  0  0  0  0
   10.6723   47.0487  131.9897 H   0  0  0  0  0  0  0  0  0  0  0  0
    9.4825   48.5861  132.8904 C   0  0  0  0  0  0  0  0  0  0  0  0
    9.3711   49.1975  131.5052 C   0  0  0  0  0  0  0  0  0  0  0  0
   10.4148   49.6523  130.9343 O   0  0  0  0  0  0  0  0  0  0  0  0
    8.1505   49.2878  130.8046 N   0  0  0  0  0  0  0  0  0  0  0  0
    7.2731   48.9529  131.2010 H   0  0  0  0  0  0  0  0  0  0  0  0
    8.1073   49.8847  129.4473 C   0  0  0  0  0  0  0  0  0  0  0  0
    7.2742   51.0863  129.4668 C   0  0  0  0  0  0  0  0  0  0  0  0
    7.0416   51.9318  128.3594 N   0  0  0  0  0  0  0  0  0  0  0  0
    6.7011   51.4301  130.5532 O   0  0  0  0  0  0  0  0  0  0  0  0
    6.0866   52.3386  128.2256 H   0  0  0  0  0  0  0  0  0  0  0  0
    7.8048   52.1498  127.6862 H   0  0  0  0  0  0  0  0  0  0  0  0
    7.5662   48.7950  128.5727 C   0  0  0  0  0  0  0  0  0  0  0  0
    6.2803   48.2287  128.9371 C   0  0  0  0  0  0  0  0  0  0  0  0
    6.0571   46.8837  129.0150 C   0  0  0  0  0  0  0  0  0  0  0  0
    4.8247   46.3448  129.3601 C   0  0  0  0  0  0  0  0  0  0  0  0
    3.7805   47.1989  129.6374 C   0  0  0  0  0  0  0  0  0  0  0  0
    3.9944   48.5485  129.5634 C   0  0  0  0  0  0  0  0  0  0  0  0
    5.2132   49.0884  129.2209 C   0  0  0  0  0  0  0  0  0  0  0  0
   10.3474   49.4736  133.6945 C   0  0  0  0  0  0  0  0  0  0  0  0
   11.4961   48.8394  134.3470 C   0  0  0  0  0  0  0  0  0  0  0  0
   11.9473   47.5719  134.0938 C   0  0  0  0  0  0  0  0  0  0  0  0
   13.0293   47.0390  134.7532 C   0  0  0  0  0  0  0  0  0  0  0  0
   13.7198   47.7579  135.7081 C   0  0  0  0  0  0  0  0  0  0  0  0
   13.2877   49.0252  135.9767 C   0  0  0  0  0  0  0  0  0  0  0  0
   12.1972   49.5533  135.3081 C   0  0  0  0  0  0  0  0  0  0  0  0
    9.3084   43.0392  131.8319 C   0  0  0  0  0  0  0  0  0  0  0  0
   10.5250   42.8422  131.5757 O   0  0  0  0  0  0  0  0  0  0  0  0
    8.9671   44.0081  132.7915 N   0  0  0  0  0  0  0  0  0  0  0  0
    7.9796   44.1753  133.0405 H   0  0  0  0  0  0  0  0  0  0  0  0
    8.3359   42.2044  131.0726 C   0  0  0  0  0  0  0  0  0  0  0  0
    7.2732   41.8423  131.9351 N   0  0  0  0  0  0  0  0  0  0  0  0
    6.5104   41.2806  131.5688 H   0  0  0  0  0  0  0  0  0  0  0  0
    7.4910   41.7790  132.9427 H   0  0  0  0  0  0  0  0  0  0  0  0
    8.0177   42.8266  129.7728 C   0  0  0  0  0  0  0  0  0  0  0  0
    7.6183   45.5528  130.8253 C   0  0  0  0  0  0  0  0  0  0  0  0
    8.6688   45.2051  129.8518 C   0  0  0  0  0  0  0  0  0  0  0  0
    9.5070   46.2263  129.4036 C   0  0  0  0  0  0  0  0  0  0  0  0
   10.5083   45.9612  128.4972 C   0  0  0  0  0  0  0  0  0  0  0  0
   11.3323   47.0064  128.0676 O   0  0  0  0  0  0  0  0  0  0  0  0
   10.7054   44.6881  128.0133 C   0  0  0  0  0  0  0  0  0  0  0  0
    9.8949   43.6428  128.4321 C   0  0  0  0  0  0  0  0  0  0  0  0
   10.1178   42.2799  127.8874 C   0  0  0  0  0  0  0  0  0  0  0  0
    8.8952   43.9347  129.3441 C   0  0  0  0  0  0  0  0  0  0  0  0
   12.0838   46.8954  127.4078 H   0  0  0  0  0  0  0  0  0  0  0  0
   10.1772   44.1257  134.8179 C   0  0  0  0  0  0  0  0  0  0  0  0
   11.4565   43.3777  134.9868 C   0  0  0  0  0  0  0  0  0  0  0  0
   12.5067   44.1042  134.1645 C   0  0  0  0  0  0  0  0  0  0  0  0
   12.8060   43.4393  132.9278 N   0  0  0  0  0  0  0  0  0  0  0  0
   12.9950   42.4130  132.9336 H   0  0  0  0  0  0  0  0  0  0  0  0
   12.8281   44.2195  131.7551 C   0  0  0  0  0  0  0  0  0  0  0  0
   13.2991   43.6626  130.5415 N   0  0  0  0  0  0  0  0  0  0  0  0
   12.4196   45.4340  131.8022 N   0  0  0  0  0  0  0  0  0  0  0  0
   12.7059   43.7532  129.7068 H   0  0  0  0  0  0  0  0  0  0  0  0
   14.2247   43.1651  130.4654 H   0  0  0  0  0  0  0  0  0  0  0  0
   12.4392   46.0061  130.9296 H   0  0  0  0  0  0  0  0  0  0  0  0
 40 41  1  0  0  0
 41 42  2  0  0  0
 42 43  1  0  0  0
 43 44  1  0  0  0
 43 45  2  0  0  0
 45 46  1  0  0  0
 46 47  1  0  0  0
 46 48  2  0  0  0
 48 39  1  0  0  0
 39 35  1  0  0  0
 35 36  1  0  0  0
 35 31  1  0  0  0
 31 32  2  0  0  0
 31 33  1  0  0  0
 33  1  1  0  0  0
  1 50  1  0  0  0
 50 51  1  0  0  0
 51 52  1  0  0  0
 52 53  1  0  0  0
 53 55  1  0  0  0
 55 56  1  0  0  0
 55 57  2  0  0  0
  1  2  1  0  0  0
  2  3  2  0  0  0
  2  4  1  0  0  0
  4  6  1  0  0  0
  6 24  1  0  0  0
 24 25  1  0  0  0
 25 26  2  0  0  0
 26 27  1  0  0  0
 27 28  2  0  0  0
 28 29  1  0  0  0
 29 30  2  0  0  0
  6  7  1  0  0  0
  7  8  2  0  0  0
  7  9  1  0  0  0
  9 11  1  0  0  0
 11 17  1  0  0  0
 17 18  1  0  0  0
 18 19  2  0  0  0
 19 20  1  0  0  0
 20 21  2  0  0  0
 21 22  1  0  0  0
 22 23  2  0  0  0
 11 12  1  0  0  0
 12 13  1  0  0  0
 12 14  2  0  0  0
 48 41  1  0  0  0
 30 25  1  0  0  0
 23 18  1  0  0  0
 44 49  1  0  0  0
 36 37  1  0  0  0
 36 38  1  0  0  0
 33 34  1  0  0  0
 53 54  1  0  0  0
 56 58  1  0  0  0
 56 59  1  0  0  0
 57 60  1  0  0  0
  4  5  1  0  0  0
  9 10  1  0  0  0
 13 15  1  0  0  0
 13 16  1  0  0  0
M  END
> <minimizedAffinity>
8.10213

> <CNNscore>
0.3669852018

> <CNNaffinity>
8.1075544357

> <CNN_VS>
2.9753525257

> <CNNaffinity_variance>
0.4175747335

$$$$
[H]N=C(N([H])[H])N([H])C([H])([H])C([H])([H])C([H])([H])[C@]([H])(C(=O)N([H])[C@]([H])(C(=O)N([H])[C@]([H])(C(=O)N([H])[H])C([H])([H])c1c([H])c([H])c([H])c([H])c1[H])C([H])([H])c1c([H])c([H])c([H])c([H])c1[H])N([H])C(=O)[C@@]([H])(N([H])[H])C([H])([H])c1c(C([H])([H])[H])c([H])c(O[H])c([H])c1C([H])([H])[H]


 60 62  0  0  0  0  0  0  0  0999 V2000
    7.4292   46.9301  130.4754 C   0  0  0  0  0  0  0  0  0  0  0  0
    7.4524   45.5819  131.0296 C   0  0  0  0  0  0  0  0  0  0  0  0
    6.5532   44.7422  130.6832 O   0  0  0  0  0  0  0  0  0  0  0  0
    8.4071   45.0974  131.9511 N   0  0  0  0  0  0  0  0  0  0  0  0
    9.1577   45.7395  132.2732 H   0  0  0  0  0  0  0  0  0  0  0  0
    8.3857   43.7505  132.4697 C   0  0  0  0  0  0  0  0  0  0  0  0
    9.8090   43.3728  132.8394 C   0  0  0  0  0  0  0  0  0  0  0  0
   10.0126   42.5389  133.7803 O   0  0  0  0  0  0  0  0  0  0  0  0
   10.9372   43.9053  132.1820 N   0  0  0  0  0  0  0  0  0  0  0  0
   10.8527   44.5837  131.4258 H   0  0  0  0  0  0  0  0  0  0  0  0
   12.3037   43.4875  132.5801 C   0  0  0  0  0  0  0  0  0  0  0  0
   12.6455   44.0917  133.8671 C   0  0  0  0  0  0  0  0  0  0  0  0
   12.4383   43.4897  135.1279 N   0  0  0  0  0  0  0  0  0  0  0  0
   13.1695   45.2544  133.8904 O   0  0  0  0  0  0  0  0  0  0  0  0
   13.1626   43.6143  135.8730 H   0  0  0  0  0  0  0  0  0  0  0  0
   11.5803   42.9318  135.3171 H   0  0  0  0  0  0  0  0  0  0  0  0
   13.1808   43.9421  131.4534 C   0  0  0  0  0  0  0  0  0  0  0  0
   12.5305   44.5729  130.3193 C   0  0  0  0  0  0  0  0  0  0  0  0
   12.8594   44.2911  129.0242 C   0  0  0  0  0  0  0  0  0  0  0  0
   12.2383   44.8992  127.9413 C   0  0  0  0  0  0  0  0  0  0  0  0
   11.2471   45.8256  128.1784 C   0  0  0  0  0  0  0  0  0  0  0  0
   10.9093   46.1139  129.4727 C   0  0  0  0  0  0  0  0  0  0  0  0
   11.5220   45.5153  130.5500 C   0  0  0  0  0  0  0  0  0  0  0  0
    7.8938   42.7332  131.5182 C   0  0  0  0  0  0  0  0  0  0  0  0
    8.5710   42.6813  130.2196 C   0  0  0  0  0  0  0  0  0  0  0  0
    9.4948   41.7419  129.8479 C   0  0  0  0  0  0  0  0  0  0  0  0
   10.0968   41.7617  128.6122 C   0  0  0  0  0  0  0  0  0  0  0  0
    9.7988   42.7338  127.6785 C   0  0  0  0  0  0  0  0  0  0  0  0
    8.8793   43.6813  128.0275 C   0  0  0  0  0  0  0  0  0  0  0  0
    8.2787   43.6535  129.2738 C   0  0  0  0  0  0  0  0  0  0  0  0
    8.9568   48.7891  131.1375 C   0  0  0  0  0  0  0  0  0  0  0  0
    9.3224   48.8533  129.9348 O   0  0  0  0  0  0  0  0  0  0  0  0
    7.9806   47.8445  131.4989 N   0  0  0  0  0  0  0  0  0  0  0  0
    7.6431   47.7843  132.4723 H   0  0  0  0  0  0  0  0  0  0  0  0
    9.6137   49.7444  132.0733 C   0  0  0  0  0  0  0  0  0  0  0  0
    9.6046   51.0345  131.4902 N   0  0  0  0  0  0  0  0  0  0  0  0
   10.0034   51.8122  132.0076 H   0  0  0  0  0  0  0  0  0  0  0  0
    9.6011   51.0802  130.4584 H   0  0  0  0  0  0  0  0  0  0  0  0
    9.0884   49.5778  133.4423 C   0  0  0  0  0  0  0  0  0  0  0  0
   11.3830   47.9275  132.5994 C   0  0  0  0  0  0  0  0  0  0  0  0
   10.4467   47.5303  133.6659 C   0  0  0  0  0  0  0  0  0  0  0  0
   10.6589   46.3047  134.2977 C   0  0  0  0  0  0  0  0  0  0  0  0
    9.8195   45.8822  135.3033 C   0  0  0  0  0  0  0  0  0  0  0  0
   10.0592   44.6488  135.9173 O   0  0  0  0  0  0  0  0  0  0  0  0
    8.7552   46.6552  135.7076 C   0  0  0  0  0  0  0  0  0  0  0  0
    8.5071   47.8808  135.1065 C   0  0  0  0  0  0  0  0  0  0  0  0
    7.3459   48.6923  135.5502 C   0  0  0  0  0  0  0  0  0  0  0  0
    9.3655   48.2836  134.0979 C   0  0  0  0  0  0  0  0  0  0  0  0
    9.4926   44.2692  136.6572 H   0  0  0  0  0  0  0  0  0  0  0  0
    6.0060   47.4405  130.2650 C   0  0  0  0  0  0  0  0  0  0  0  0
    5.6349   47.6092  128.8302 C   0  0  0  0  0  0  0  0  0  0  0  0
    5.5405   49.1025  128.5694 C   0  0  0  0  0  0  0  0  0  0  0  0
    6.8245   49.7428  128.5184 N   0  0  0  0  0  0  0  0  0  0  0  0
    7.6386   49.2217  128.1251 H   0  0  0  0  0  0  0  0  0  0  0  0
    6.9177   51.0601  129.0085 C   0  0  0  0  0  0  0  0  0  0  0  0
    6.9175   51.2992  130.4041 N   0  0  0  0  0  0  0  0  0  0  0  0
    7.0006   52.0337  128.1782 N   0  0  0  0  0  0  0  0  0  0  0  0
    7.6649   51.8885  130.7927 H   0  0  0  0  0  0  0  0  0  0  0  0
    6.1872   50.8994  131.0497 H   0  0  0  0  0  0  0  0  0  0  0  0
    7.0689   53.0070  128.5486 H   0  0  0  0  0  0  0  0  0  0  0  0
 40 41  1  0  0  0
 41 42  2  0  0  0
 42 43  1  0  0  0
 43 44  1  0  0  0
 43 45  2  0  0  0
 45 46  1  0  0  0
 46 47  1  0  0  0
 46 48  2  0  0  0
 48 39  1  0  0  0
 39 35  1  0  0  0
 35 36  1  0  0  0
 35 31  1  0  0  0
 31 32  2  0  0  0
 31 33  1  0  0  0
 33  1  1  0  0  0
  1 50  1  0  0  0
 50 51  1  0  0  0
 51 52  1  0  0  0
 52 53  1  0  0  0
 53 55  1  0  0  0
 55 56  1  0  0  0
 55 57  2  0  0  0
  1  2  1  0  0  0
  2  3  2  0  0  0
  2  4  1  0  0  0
  4  6  1  0  0  0
  6 24  1  0  0  0
 24 25  1  0  0  0
 25 26  2  0  0  0
 26 27  1  0  0  0
 27 28  2  0  0  0
 28 29  1  0  0  0
 29 30  2  0  0  0
  6  7  1  0  0  0
  7  8  2  0  0  0
  7  9  1  0  0  0
  9 11  1  0  0  0
 11 17  1  0  0  0
 17 18  1  0  0  0
 18 19  2  0  0  0
 19 20  1  0  0  0
 20 21  2  0  0  0
 21 22  1  0  0  0
 22 23  2  0  0  0
 11 12  1  0  0  0
 12 13  1  0  0  0
 12 14  2  0  0  0
 48 41  1  0  0  0
 30 25  1  0  0  0
 23 18  1  0  0  0
 44 49  1  0  0  0
 36 37  1  0  0  0
 36 38  1  0  0  0
 33 34  1  0  0  0
 53 54  1  0  0  0
 56 58  1  0  0  0
 56 59  1  0  0  0
 57 60  1  0  0  0
  4  5  1  0  0  0
  9 10  1  0  0  0
 13 15  1  0  0  0
 13 16  1  0  0  0
M  END
> <minimizedAffinity>
4.84794

> <CNNscore>
0.3636856675

> <CNNaffinity>
8.0256633759

> <CNN_VS>
2.9188187122

> <CNNaffinity_variance>
0.4233717322

$$$$
[H]N=C(N([H])[H])N([H])C([H])([H])C([H])([H])C([H])([H])[C@]([H])(C(=O)N([H])[C@]([H])(C(=O)N([H])[C@]([H])(C(=O)N([H])[H])C([H])([H])c1c([H])c([H])c([H])c([H])c1[H])C([H])([H])c1c([H])c([H])c([H])c([H])c1[H])N([H])C(=O)[C@@]([H])(N([H])[H])C([H])([H])c1c(C([H])([H])[H])c([H])c(O[H])c([H])c1C([H])([H])[H]


 60 62  0  0  0  0  0  0  0  0999 V2000
    8.7178   47.7589  133.4396 C   0  0  0  0  0  0  0  0  0  0  0  0
    8.6281   46.3191  133.6498 C   0  0  0  0  0  0  0  0  0  0  0  0
    8.8785   45.8337  134.8053 O   0  0  0  0  0  0  0  0  0  0  0  0
    8.2822   45.3725  132.6600 N   0  0  0  0  0  0  0  0  0  0  0  0
    8.0751   45.7103  131.6996 H   0  0  0  0  0  0  0  0  0  0  0  0
    8.2068   43.9548  132.9208 C   0  0  0  0  0  0  0  0  0  0  0  0
    9.6187   43.4515  133.1624 C   0  0  0  0  0  0  0  0  0  0  0  0
    9.8041   42.2332  133.4839 O   0  0  0  0  0  0  0  0  0  0  0  0
   10.7558   44.2773  133.0452 N   0  0  0  0  0  0  0  0  0  0  0  0
   10.6848   45.2642  132.7999 H   0  0  0  0  0  0  0  0  0  0  0  0
   12.1118   43.7243  133.2814 C   0  0  0  0  0  0  0  0  0  0  0  0
   12.4035   43.7370  134.7142 C   0  0  0  0  0  0  0  0  0  0  0  0
   11.4947   43.3715  135.7318 N   0  0  0  0  0  0  0  0  0  0  0  0
   13.5580   44.1058  135.1122 O   0  0  0  0  0  0  0  0  0  0  0  0
   11.8495   42.8373  136.5589 H   0  0  0  0  0  0  0  0  0  0  0  0
   10.4883   43.6283  135.6644 H   0  0  0  0  0  0  0  0  0  0  0  0
   13.0225   44.6012  132.4771 C   0  0  0  0  0  0  0  0  0  0  0  0
   12.6766   44.8163  131.0838 C   0  0  0  0  0  0  0  0  0  0  0  0
   13.4120   44.3106  130.0502 C   0  0  0  0  0  0  0  0  0  0  0  0
   13.0809   44.5213  128.7182 C   0  0  0  0  0  0  0  0  0  0  0  0
   11.9638   45.2706  128.4220 C   0  0  0  0  0  0  0  0  0  0  0  0
   11.2195   45.7805  129.4509 C   0  0  0  0  0  0  0  0  0  0  0  0
   11.5433   45.5759  130.7728 C   0  0  0  0  0  0  0  0  0  0  0  0
    7.6383   43.1558  131.8159 C   0  0  0  0  0  0  0  0  0  0  0  0
    8.3710   43.1932  130.5473 C   0  0  0  0  0  0  0  0  0  0  0  0
    8.0953   44.0315  129.5007 C   0  0  0  0  0  0  0  0  0  0  0  0
    8.8224   44.0037  128.3345 C   0  0  0  0  0  0  0  0  0  0  0  0
    9.8729   43.1257  128.1584 C   0  0  0  0  0  0  0  0  0  0  0  0
   10.1665   42.2802  129.1898 C   0  0  0  0  0  0  0  0  0  0  0  0
    9.4288   42.3150  130.3600 C   0  0  0  0  0  0  0  0  0  0  0  0
    9.2641   49.2884  131.5448 C   0  0  0  0  0  0  0  0  0  0  0  0
    8.9501   50.2504  132.2934 O   0  0  0  0  0  0  0  0  0  0  0  0
    9.1897   47.9809  132.0556 N   0  0  0  0  0  0  0  0  0  0  0  0
    9.4637   47.1736  131.4739 H   0  0  0  0  0  0  0  0  0  0  0  0
    9.6916   49.6464  130.1633 C   0  0  0  0  0  0  0  0  0  0  0  0
   10.5871   48.6568  129.6911 N   0  0  0  0  0  0  0  0  0  0  0  0
   10.9648   48.7413  128.7521 H   0  0  0  0  0  0  0  0  0  0  0  0
   11.1426   48.1531  130.4013 H   0  0  0  0  0  0  0  0  0  0  0  0
    8.5255   50.0061  129.3333 C   0  0  0  0  0  0  0  0  0  0  0  0
    8.8032   47.2250  128.3912 C   0  0  0  0  0  0  0  0  0  0  0  0
    7.5434   47.7817  128.9156 C   0  0  0  0  0  0  0  0  0  0  0  0
    6.4274   46.9455  128.9563 C   0  0  0  0  0  0  0  0  0  0  0  0
    5.2245   47.4085  129.4390 C   0  0  0  0  0  0  0  0  0  0  0  0
    4.1244   46.5455  129.4672 O   0  0  0  0  0  0  0  0  0  0  0  0
    5.0944   48.7018  129.8908 C   0  0  0  0  0  0  0  0  0  0  0  0
    6.1785   49.5675  129.8684 C   0  0  0  0  0  0  0  0  0  0  0  0
    6.0120   50.9621  130.3492 C   0  0  0  0  0  0  0  0  0  0  0  0
    7.3772   49.0782  129.3785 C   0  0  0  0  0  0  0  0  0  0  0  0
    3.2127   46.8071  129.8031 H   0  0  0  0  0  0  0  0  0  0  0  0
    9.8057   48.3984  134.2985 C   0  0  0  0  0  0  0  0  0  0  0  0
   11.1903   48.0185  133.8943 C   0  0  0  0  0  0  0  0  0  0  0  0
   11.9788   47.7922  135.1725 C   0  0  0  0  0  0  0  0  0  0  0  0
   12.6486   48.9758  135.6326 N   0  0  0  0  0  0  0  0  0  0  0  0
   12.3405   49.9069  135.2761 H   0  0  0  0  0  0  0  0  0  0  0  0
   13.7010   48.8143  136.5550 C   0  0  0  0  0  0  0  0  0  0  0  0
   14.7551   47.9108  136.2772 N   0  0  0  0  0  0  0  0  0  0  0  0
   13.6900   49.4917  137.6437 N   0  0  0  0  0  0  0  0  0  0  0  0
   15.7202   48.2553  136.3601 H   0  0  0  0  0  0  0  0  0  0  0  0
   14.5868   46.9106  135.9924 H   0  0  0  0  0  0  0  0  0  0  0  0
   14.4728   49.3666  138.3224 H   0  0  0  0  0  0  0  0  0  0  0  0
 40 41  1  0  0  0
 41 42  2  0  0  0
 42 43  1  0  0  0
 43 44  1  0  0  0
 43 45  2  0  0  0
 45 46  1  0  0  0
 46 47  1  0  0  0
 46 48  2  0  0  0
 48 39  1  0  0  0
 39 35  1  0  0  0
 35 36  1  0  0  0
 35 31  1  0  0  0
 31 32  2  0  0  0
 31 33  1  0  0  0
 33  1  1  0  0  0
  1 50  1  0  0  0
 50 51  1  0  0  0
 51 52  1  0  0  0
 52 53  1  0  0  0
 53 55  1  0  0  0
 55 56  1  0  0  0
 55 57  2  0  0  0
  1  2  1  0  0  0
  2  3  2  0  0  0
  2  4  1  0  0  0
  4  6  1  0  0  0
  6 24  1  0  0  0
 24 25  1  0  0  0
 25 26  2  0  0  0
 26 27  1  0  0  0
 27 28  2  0  0  0
 28 29  1  0  0  0
 29 30  2  0  0  0
  6  7  1  0  0  0
  7  8  2  0  0  0
  7  9  1  0  0  0
  9 11  1  0  0  0
 11 17  1  0  0  0
 17 18  1  0  0  0
 18 19  2  0  0  0
 19 20  1  0  0  0
 20 21  2  0  0  0
 21 22  1  0  0  0
 22 23  2  0  0  0
 11 12  1  0  0  0
 12 13  1  0  0  0
 12 14  2  0  0  0
 48 41  1  0  0  0
 30 25  1  0  0  0
 23 18  1  0  0  0
 44 49  1  0  0  0
 36 37  1  0  0  0
 36 38  1  0  0  0
 33 34  1  0  0  0
 53 54  1  0  0  0
 56 58  1  0  0  0
 56 59  1  0  0  0
 57 60  1  0  0  0
  4  5  1  0  0  0
  9 10  1  0  0  0
 13 15  1  0  0  0
 13 16  1  0  0  0
M  END
> <minimizedAffinity>
4.77586

> <CNNscore>
0.3553659022

> <CNNaffinity>
8.3348636627

> <CNN_VS>
2.9619264603

> <CNNaffinity_variance>
0.5290953517

$$$$
[H]N=C(N([H])[H])N([H])C([H])([H])C([H])([H])C([H])([H])[C@]([H])(C(=O)N([H])[C@]([H])(C(=O)N([H])[C@]([H])(C(=O)N([H])[H])C([H])([H])c1c([H])c([H])c([H])c([H])c1[H])C([H])([H])c1c([H])c([H])c([H])c([H])c1[H])N([H])C(=O)[C@@]([H])(N([H])[H])C([H])([H])c1c(C([H])([H])[H])c([H])c(O[H])c([H])c1C([H])([H])[H]


 60 62  0  0  0  0  0  0  0  0999 V2000
    8.6657   47.7592  133.4100 C   0  0  0  0  0  0  0  0  0  0  0  0
    8.5629   46.3203  133.6201 C   0  0  0  0  0  0  0  0  0  0  0  0
    8.7339   45.8404  134.7924 O   0  0  0  0  0  0  0  0  0  0  0  0
    8.2861   45.3688  132.6134 N   0  0  0  0  0  0  0  0  0  0  0  0
    8.1451   45.7020  131.6395 H   0  0  0  0  0  0  0  0  0  0  0  0
    8.1941   43.9522  132.8750 C   0  0  0  0  0  0  0  0  0  0  0  0
    9.5981   43.4359  133.1344 C   0  0  0  0  0  0  0  0  0  0  0  0
    9.7695   42.2124  133.4435 O   0  0  0  0  0  0  0  0  0  0  0  0
   10.7427   44.2550  133.0475 N   0  0  0  0  0  0  0  0  0  0  0  0
   10.6828   45.2454  132.8137 H   0  0  0  0  0  0  0  0  0  0  0  0
   12.0905   43.6894  133.3000 C   0  0  0  0  0  0  0  0  0  0  0  0
   12.3718   43.7149  134.7348 C   0  0  0  0  0  0  0  0  0  0  0  0
   11.4549   43.3606  135.7490 N   0  0  0  0  0  0  0  0  0  0  0  0
   13.5241   44.0851  135.1377 O   0  0  0  0  0  0  0  0  0  0  0  0
   11.8026   42.8334  136.5836 H   0  0  0  0  0  0  0  0  0  0  0  0
   10.4495   43.6187  135.6719 H   0  0  0  0  0  0  0  0  0  0  0  0
   13.0171   44.5469  132.4929 C   0  0  0  0  0  0  0  0  0  0  0  0
   12.6563   44.7931  131.1085 C   0  0  0  0  0  0  0  0  0  0  0  0
   13.3795   44.3093  130.0560 C   0  0  0  0  0  0  0  0  0  0  0  0
   13.0341   44.5497  128.7327 C   0  0  0  0  0  0  0  0  0  0  0  0
   11.9151   45.3069  128.4654 C   0  0  0  0  0  0  0  0  0  0  0  0
   11.1830   45.7952  129.5134 C   0  0  0  0  0  0  0  0  0  0  0  0
   11.5209   45.5611  130.8268 C   0  0  0  0  0  0  0  0  0  0  0  0
    7.6316   43.1572  131.7641 C   0  0  0  0  0  0  0  0  0  0  0  0
    8.4272   43.1111  130.5343 C   0  0  0  0  0  0  0  0  0  0  0  0
    9.5040   42.2933  130.3208 C   0  0  0  0  0  0  0  0  0  0  0  0
   10.2096   42.3114  129.1412 C   0  0  0  0  0  0  0  0  0  0  0  0
    9.8665   43.1585  128.1066 C   0  0  0  0  0  0  0  0  0  0  0  0
    8.7949   43.9832  128.2972 C   0  0  0  0  0  0  0  0  0  0  0  0
    8.0907   43.9583  129.4882 C   0  0  0  0  0  0  0  0  0  0  0  0
    9.2397   49.2814  131.5175 C   0  0  0  0  0  0  0  0  0  0  0  0
    8.9046   50.2455  132.2540 O   0  0  0  0  0  0  0  0  0  0  0  0
    9.1636   47.9764  132.0343 N   0  0  0  0  0  0  0  0  0  0  0  0
    9.4544   47.1676  131.4629 H   0  0  0  0  0  0  0  0  0  0  0  0
    9.6923   49.6343  130.1426 C   0  0  0  0  0  0  0  0  0  0  0  0
   10.5866   48.6364  129.6857 N   0  0  0  0  0  0  0  0  0  0  0  0
   10.9800   48.7168  128.7528 H   0  0  0  0  0  0  0  0  0  0  0  0
   11.1262   48.1286  130.4051 H   0  0  0  0  0  0  0  0  0  0  0  0
    8.5428   50.0033  129.2938 C   0  0  0  0  0  0  0  0  0  0  0  0
    5.9507   50.9359  130.3477 C   0  0  0  0  0  0  0  0  0  0  0  0
    6.1791   49.5674  129.8506 C   0  0  0  0  0  0  0  0  0  0  0  0
    5.1110   48.6709  129.8929 C   0  0  0  0  0  0  0  0  0  0  0  0
    5.2633   47.3805  129.4393 C   0  0  0  0  0  0  0  0  0  0  0  0
    4.1733   46.5059  129.4946 O   0  0  0  0  0  0  0  0  0  0  0  0
    6.4677   46.9454  128.9355 C   0  0  0  0  0  0  0  0  0  0  0  0
    7.5563   47.8035  128.8750 C   0  0  0  0  0  0  0  0  0  0  0  0
    8.8495   47.3091  128.3392 C   0  0  0  0  0  0  0  0  0  0  0  0
    7.3779   49.0962  129.3371 C   0  0  0  0  0  0  0  0  0  0  0  0
    4.2035   45.5491  129.1847 H   0  0  0  0  0  0  0  0  0  0  0  0
    9.7423   48.3927  134.2874 C   0  0  0  0  0  0  0  0  0  0  0  0
   11.1316   48.0075  133.9051 C   0  0  0  0  0  0  0  0  0  0  0  0
   11.9065   47.8049  135.1955 C   0  0  0  0  0  0  0  0  0  0  0  0
   12.6489   48.9688  135.5898 N   0  0  0  0  0  0  0  0  0  0  0  0
   12.3970   49.8961  135.1827 H   0  0  0  0  0  0  0  0  0  0  0  0
   13.6926   48.7941  136.5196 C   0  0  0  0  0  0  0  0  0  0  0  0
   14.7474   47.8917  136.2405 N   0  0  0  0  0  0  0  0  0  0  0  0
   13.6733   49.4585  137.6161 N   0  0  0  0  0  0  0  0  0  0  0  0
   15.7123   48.2331  136.3361 H   0  0  0  0  0  0  0  0  0  0  0  0
   14.5796   46.8953  135.9422 H   0  0  0  0  0  0  0  0  0  0  0  0
   14.4496   49.3236  138.3003 H   0  0  0  0  0  0  0  0  0  0  0  0
 40 41  1  0  0  0
 41 42  2  0  0  0
 42 43  1  0  0  0
 43 44  1  0  0  0
 43 45  2  0  0  0
 45 46  1  0  0  0
 46 47  1  0  0  0
 46 48  2  0  0  0
 48 39  1  0  0  0
 39 35  1  0  0  0
 35 36  1  0  0  0
 35 31  1  0  0  0
 31 32  2  0  0  0
 31 33  1  0  0  0
 33  1  1  0  0  0
  1 50  1  0  0  0
 50 51  1  0  0  0
 51 52  1  0  0  0
 52 53  1  0  0  0
 53 55  1  0  0  0
 55 56  1  0  0  0
 55 57  2  0  0  0
  1  2  1  0  0  0
  2  3  2  0  0  0
  2  4  1  0  0  0
  4  6  1  0  0  0
  6 24  1  0  0  0
 24 25  1  0  0  0
 25 26  2  0  0  0
 26 27  1  0  0  0
 27 28  2  0  0  0
 28 29  1  0  0  0
 29 30  2  0  0  0
  6  7  1  0  0  0
  7  8  2  0  0  0
  7  9  1  0  0  0
  9 11  1  0  0  0
 11 17  1  0  0  0
 17 18  1  0  0  0
 18 19  2  0  0  0
 19 20  1  0  0  0
 20 21  2  0  0  0
 21 22  1  0  0  0
 22 23  2  0  0  0
 11 12  1  0  0  0
 12 13  1  0  0  0
 12 14  2  0  0  0
 48 41  1  0  0  0
 30 25  1  0  0  0
 23 18  1  0  0  0
 44 49  1  0  0  0
 36 37  1  0  0  0
 36 38  1  0  0  0
 33 34  1  0  0  0
 53 54  1  0  0  0
 56 58  1  0  0  0
 56 59  1  0  0  0
 57 60  1  0  0  0
  4  5  1  0  0  0
  9 10  1  0  0  0
 13 15  1  0  0  0
 13 16  1  0  0  0
M  END
> <minimizedAffinity>
4.87649

> <CNNscore>
0.3465221822

> <CNNaffinity>
8.3118772507

> <CNN_VS>
2.8802497387

> <CNNaffinity_variance>
0.5285544395

$$$$
[H]c1nc([H])n([H])c1C([H])(c1c([H])c([H])c(Cl)c([H])c1[H])n1c([H])nc([H])c1[H]


 19 21  0  0  0  0  0  0  0  0999 V2000
    9.4390   46.4650  130.0633 C   0  0  0  0  0  0  0  0  0  0  0  0
    9.8488   46.0953  136.1084 Cl  0  0  0  0  0  0  0  0  0  0  0  0
    9.7462   46.2043  134.3599 C   0  0  0  0  0  0  0  0  0  0  0  0
    8.5392   46.0840  133.7339 C   0  0  0  0  0  0  0  0  0  0  0  0
    8.4487   46.1669  132.3785 C   0  0  0  0  0  0  0  0  0  0  0  0
    9.5634   46.3769  131.5537 C   0  0  0  0  0  0  0  0  0  0  0  0
   10.7579   46.4921  132.2297 C   0  0  0  0  0  0  0  0  0  0  0  0
   10.8635   46.4097  133.6060 C   0  0  0  0  0  0  0  0  0  0  0  0
    9.5451   45.1521  129.4100 C   0  0  0  0  0  0  0  0  0  0  0  0
    8.8466   43.9933  129.6472 C   0  0  0  0  0  0  0  0  0  0  0  0
    9.2488   43.0122  128.8224 N   0  0  0  0  0  0  0  0  0  0  0  0
   10.1973   43.5320  128.0606 C   0  0  0  0  0  0  0  0  0  0  0  0
   10.3894   44.7943  128.3896 N   0  0  0  0  0  0  0  0  0  0  0  0
   11.0866   45.4229  127.9327 H   0  0  0  0  0  0  0  0  0  0  0  0
    8.3914   47.3201  129.6096 N   0  0  0  0  0  0  0  0  0  0  0  0
    7.1685   47.0306  129.1285 C   0  0  0  0  0  0  0  0  0  0  0  0
    6.4970   48.1970  128.8159 C   0  0  0  0  0  0  0  0  0  0  0  0
    7.3230   49.2207  129.1106 N   0  0  0  0  0  0  0  0  0  0  0  0
    8.4353   48.6944  129.5770 C   0  0  0  0  0  0  0  0  0  0  0  0
  2  3  1  0  0  0
  3  4  2  0  0  0
  4  5  1  0  0  0
  5  6  2  0  0  0
  6  7  1  0  0  0
  7  8  2  0  0  0
  6  1  1  0  0  0
  1  9  1  0  0  0
  9 10  2  0  0  0
 10 11  1  0  0  0
 11 12  2  0  0  0
 12 13  1  0  0  0
  1 15  1  0  0  0
 15 16  1  0  0  0
 16 17  2  0  0  0
 17 18  1  0  0  0
 18 19  2  0  0  0
  8  3  1  0  0  0
 13  9  1  0  0  0
 19 15  1  0  0  0
 13 14  1  0  0  0
M  END
> <minimizedAffinity>
-6.39326

> <CNNscore>
0.6315919161

> <CNNaffinity>
7.1710252762

> <CNN_VS>
4.5291614532

> <CNNaffinity_variance>
0.2297223806

$$$$
[H]c1nc([H])n([H])c1C([H])(c1c([H])c([H])c(Cl)c([H])c1[H])n1c([H])nc([H])c1[H]


 19 21  0  0  0  0  0  0  0  0999 V2000
    8.0122   45.4772  130.1743 C   0  0  0  0  0  0  0  0  0  0  0  0
    9.7274   46.3833  135.9263 Cl  0  0  0  0  0  0  0  0  0  0  0  0
    9.2331   46.1370  134.2605 C   0  0  0  0  0  0  0  0  0  0  0  0
    8.9258   44.8845  133.8133 C   0  0  0  0  0  0  0  0  0  0  0  0
    8.5415   44.6827  132.5234 C   0  0  0  0  0  0  0  0  0  0  0  0
    8.4378   45.7238  131.5894 C   0  0  0  0  0  0  0  0  0  0  0  0
    8.7575   46.9680  132.0862 C   0  0  0  0  0  0  0  0  0  0  0  0
    9.1493   47.1865  133.3943 C   0  0  0  0  0  0  0  0  0  0  0  0
    7.3246   46.6342  129.5825 C   0  0  0  0  0  0  0  0  0  0  0  0
    7.8464   47.7766  129.0260 C   0  0  0  0  0  0  0  0  0  0  0  0
    6.8691   48.5908  128.5944 N   0  0  0  0  0  0  0  0  0  0  0  0
    5.7278   47.9806  128.8694 C   0  0  0  0  0  0  0  0  0  0  0  0
    5.9721   46.8237  129.4531 N   0  0  0  0  0  0  0  0  0  0  0  0
    5.2346   46.1551  129.7677 H   0  0  0  0  0  0  0  0  0  0  0  0
    8.9992   44.8397  129.3655 N   0  0  0  0  0  0  0  0  0  0  0  0
   10.2020   45.2721  128.9447 C   0  0  0  0  0  0  0  0  0  0  0  0
   10.8103   44.2981  128.1764 C   0  0  0  0  0  0  0  0  0  0  0  0
    9.9654   43.2490  128.1250 N   0  0  0  0  0  0  0  0  0  0  0  0
    8.9024   43.5775  128.8277 C   0  0  0  0  0  0  0  0  0  0  0  0
  2  3  1  0  0  0
  3  4  2  0  0  0
  4  5  1  0  0  0
  5  6  2  0  0  0
  6  7  1  0  0  0
  7  8  2  0  0  0
  6  1  1  0  0  0
  1  9  1  0  0  0
  9 10  2  0  0  0
 10 11  1  0  0  0
 11 12  2  0  0  0
 12 13  1  0  0  0
  1 15  1  0  0  0
 15 16  1  0  0  0
 16 17  2  0  0  0
 17 18  1  0  0  0
 18 19  2  0  0  0
  8  3  1  0  0  0
 13  9  1  0  0  0
 19 15  1  0  0  0
 13 14  1  0  0  0
M  END
> <minimizedAffinity>
-6.86599

> <CNNscore>
0.5669923425

> <CNNaffinity>
6.9497642517

> <CNN_VS>
3.9404630661

> <CNNaffinity_variance>
0.0729976073

$$$$
[H]c1nc([H])n([H])c1C([H])(c1c([H])c([H])c(Cl)c([H])c1[H])n1c([H])nc([H])c1[H]


 19 21  0  0  0  0  0  0  0  0999 V2000
    9.2978   46.1976  130.2460 C   0  0  0  0  0  0  0  0  0  0  0  0
    9.7929   46.3569  136.2940 Cl  0  0  0  0  0  0  0  0  0  0  0  0
    9.6343   46.3070  134.5469 C   0  0  0  0  0  0  0  0  0  0  0  0
   10.7103   46.5767  133.7516 C   0  0  0  0  0  0  0  0  0  0  0  0
   10.5980   46.5407  132.3958 C   0  0  0  0  0  0  0  0  0  0  0  0
    9.3972   46.2312  131.7405 C   0  0  0  0  0  0  0  0  0  0  0  0
    8.3406   45.9668  132.5836 C   0  0  0  0  0  0  0  0  0  0  0  0
    8.4415   46.0000  133.9623 C   0  0  0  0  0  0  0  0  0  0  0  0
    9.3661   44.8314  129.7070 C   0  0  0  0  0  0  0  0  0  0  0  0
    9.9036   44.3779  128.5268 C   0  0  0  0  0  0  0  0  0  0  0  0
    9.7619   43.0469  128.4142 N   0  0  0  0  0  0  0  0  0  0  0  0
    9.1392   42.6449  129.5100 C   0  0  0  0  0  0  0  0  0  0  0  0
    8.8953   43.6812  130.2879 N   0  0  0  0  0  0  0  0  0  0  0  0
    8.4125   43.6240  131.2118 H   0  0  0  0  0  0  0  0  0  0  0  0
    8.2883   47.0471  129.7041 N   0  0  0  0  0  0  0  0  0  0  0  0
    7.0011   46.7978  129.4010 C   0  0  0  0  0  0  0  0  0  0  0  0
    6.4063   47.9384  128.8969 C   0  0  0  0  0  0  0  0  0  0  0  0
    7.3457   48.9052  128.8905 N   0  0  0  0  0  0  0  0  0  0  0  0
    8.4497   48.3708  129.3674 C   0  0  0  0  0  0  0  0  0  0  0  0
  2  3  1  0  0  0
  3  4  2  0  0  0
  4  5  1  0  0  0
  5  6  2  0  0  0
  6  7  1  0  0  0
  7  8  2  0  0  0
  6  1  1  0  0  0
  1  9  1  0  0  0
  9 10  2  0  0  0
 10 11  1  0  0  0
 11 12  2  0  0  0
 12 13  1  0  0  0
  1 15  1  0  0  0
 15 16  1  0  0  0
 16 17  2  0  0  0
 17 18  1  0  0  0
 18 19  2  0  0  0
  8  3  1  0  0  0
 13  9  1  0  0  0
 19 15  1  0  0  0
 13 14  1  0  0  0
M  END
> <minimizedAffinity>
-5.89649

> <CNNscore>
0.5077502131

> <CNNaffinity>
6.9704999924

> <CNN_VS>
3.5392727852

> <CNNaffinity_variance>
0.1417796910

$$$$
[H]c1nc([H])n([H])c1C([H])(c1c([H])c([H])c(Cl)c([H])c1[H])n1c([H])nc([H])c1[H]


 19 21  0  0  0  0  0  0  0  0999 V2000
    9.0082   47.3271  130.1434 C   0  0  0  0  0  0  0  0  0  0  0  0
   10.9330   41.7938  131.7327 Cl  0  0  0  0  0  0  0  0  0  0  0  0
   10.3644   43.3922  131.2837 C   0  0  0  0  0  0  0  0  0  0  0  0
   11.0349   44.1208  130.3441 C   0  0  0  0  0  0  0  0  0  0  0  0
   10.6024   45.3613  129.9887 C   0  0  0  0  0  0  0  0  0  0  0  0
    9.4654   45.9598  130.5509 C   0  0  0  0  0  0  0  0  0  0  0  0
    8.8227   45.1876  131.4931 C   0  0  0  0  0  0  0  0  0  0  0  0
    9.2517   43.9261  131.8630 C   0  0  0  0  0  0  0  0  0  0  0  0
    7.6408   47.3268  129.6033 C   0  0  0  0  0  0  0  0  0  0  0  0
    7.1210   48.0025  128.5261 C   0  0  0  0  0  0  0  0  0  0  0  0
    5.8170   47.7223  128.3665 N   0  0  0  0  0  0  0  0  0  0  0  0
    5.4978   46.8746  129.3308 C   0  0  0  0  0  0  0  0  0  0  0  0
    6.5588   46.6266  130.0735 N   0  0  0  0  0  0  0  0  0  0  0  0
    6.5640   45.9874  130.8988 H   0  0  0  0  0  0  0  0  0  0  0  0
    9.3240   48.3564  131.0791 N   0  0  0  0  0  0  0  0  0  0  0  0
    9.9408   48.2975  132.2736 C   0  0  0  0  0  0  0  0  0  0  0  0
   10.0251   49.5624  132.8231 C   0  0  0  0  0  0  0  0  0  0  0  0
    9.4496   50.4128  131.9497 N   0  0  0  0  0  0  0  0  0  0  0  0
    9.0402   49.6935  130.9267 C   0  0  0  0  0  0  0  0  0  0  0  0
  2  3  1  0  0  0
  3  4  2  0  0  0
  4  5  1  0  0  0
  5  6  2  0  0  0
  6  7  1  0  0  0
  7  8  2  0  0  0
  6  1  1  0  0  0
  1  9  1  0  0  0
  9 10  2  0  0  0
 10 11  1  0  0  0
 11 12  2  0  0  0
 12 13  1  0  0  0
  1 15  1  0  0  0
 15 16  1  0  0  0
 16 17  2  0  0  0
 17 18  1  0  0  0
 18 19  2  0  0  0
  8  3  1  0  0  0
 13  9  1  0  0  0
 19 15  1  0  0  0
 13 14  1  0  0  0
M  END
> <minimizedAffinity>
-6.38170

> <CNNscore>
0.5036529899

> <CNNaffinity>
7.0075674057

> <CNN_VS>
3.5293822289

> <CNNaffinity_variance>
0.1606720388

$$$$
[H]c1nc([H])n([H])c1C([H])(c1c([H])c([H])c(Cl)c([H])c1[H])n1c([H])nc([H])c1[H]


 19 21  0  0  0  0  0  0  0  0999 V2000
    9.1441   45.6506  130.5837 C   0  0  0  0  0  0  0  0  0  0  0  0
   11.5986   43.6523  135.7635 Cl  0  0  0  0  0  0  0  0  0  0  0  0
   10.8762   44.2351  134.2741 C   0  0  0  0  0  0  0  0  0  0  0  0
   11.5401   44.0986  133.0894 C   0  0  0  0  0  0  0  0  0  0  0  0
   10.9888   44.5471  131.9287 C   0  0  0  0  0  0  0  0  0  0  0  0
    9.7309   45.1649  131.8737 C   0  0  0  0  0  0  0  0  0  0  0  0
    9.0998   45.2803  133.0926 C   0  0  0  0  0  0  0  0  0  0  0  0
    9.6489   44.8289  134.2787 C   0  0  0  0  0  0  0  0  0  0  0  0
    9.1512   47.1170  130.4777 C   0  0  0  0  0  0  0  0  0  0  0  0
    9.9793   48.0374  131.0730 C   0  0  0  0  0  0  0  0  0  0  0  0
    9.6494   49.2875  130.7085 N   0  0  0  0  0  0  0  0  0  0  0  0
    8.6188   49.1758  129.8865 C   0  0  0  0  0  0  0  0  0  0  0  0
    8.3070   47.9035  129.7355 N   0  0  0  0  0  0  0  0  0  0  0  0
    7.5275   47.5550  129.1347 H   0  0  0  0  0  0  0  0  0  0  0  0
    9.5730   44.9261  129.4323 N   0  0  0  0  0  0  0  0  0  0  0  0
   10.5395   45.1954  128.5356 C   0  0  0  0  0  0  0  0  0  0  0  0
   10.5913   44.1950  127.5841 C   0  0  0  0  0  0  0  0  0  0  0  0
    9.6393   43.2954  127.9029 N   0  0  0  0  0  0  0  0  0  0  0  0
    9.0456   43.7346  128.9920 C   0  0  0  0  0  0  0  0  0  0  0  0
  2  3  1  0  0  0
  3  4  2  0  0  0
  4  5  1  0  0  0
  5  6  2  0  0  0
  6  7  1  0  0  0
  7  8  2  0  0  0
  6  1  1  0  0  0
  1  9  1  0  0  0
  9 10  2  0  0  0
 10 11  1  0  0  0
 11 12  2  0  0  0
 12 13  1  0  0  0
  1 15  1  0  0  0
 15 16  1  0  0  0
 16 17  2  0  0  0
 17 18  1  0  0  0
 18 19  2  0  0  0
  8  3  1  0  0  0
 13  9  1  0  0  0
 19 15  1  0  0  0
 13 14  1  0  0  0
M  END
> <minimizedAffinity>
-5.30883

> <CNNscore>
0.4852042198

> <CNNaffinity>
7.0603475571

> <CNN_VS>
3.4257104397

> <CNNaffinity_variance>
0.2939530015

$$$$
[H]c1nc([H])n([H])c1C([H])(c1c([H])c([H])c(Cl)c([H])c1[H])n1c([H])nc([H])c1[H]


 19 21  0  0  0  0  0  0  0  0999 V2000
    8.9875   48.0616  130.2471 C   0  0  0  0  0  0  0  0  0  0  0  0
    9.9903   42.5455  127.9199 Cl  0  0  0  0  0  0  0  0  0  0  0  0
    9.6871   44.1348  128.5998 C   0  0  0  0  0  0  0  0  0  0  0  0
   10.5515   45.1625  128.3556 C   0  0  0  0  0  0  0  0  0  0  0  0
   10.3256   46.3988  128.8780 C   0  0  0  0  0  0  0  0  0  0  0  0
    9.2154   46.6924  129.6831 C   0  0  0  0  0  0  0  0  0  0  0  0
    8.3724   45.6252  129.9014 C   0  0  0  0  0  0  0  0  0  0  0  0
    8.5905   44.3646  129.3766 C   0  0  0  0  0  0  0  0  0  0  0  0
    7.6613   48.5978  129.9073 C   0  0  0  0  0  0  0  0  0  0  0  0
    7.1329   49.8453  130.1349 C   0  0  0  0  0  0  0  0  0  0  0  0
    5.8787   49.9297  129.6613 N   0  0  0  0  0  0  0  0  0  0  0  0
    5.5999   48.7490  129.1335 C   0  0  0  0  0  0  0  0  0  0  0  0
    6.6375   47.9465  129.2672 N   0  0  0  0  0  0  0  0  0  0  0  0
    6.6658   46.9587  128.9306 H   0  0  0  0  0  0  0  0  0  0  0  0
    9.4114   48.2189  131.5999 N   0  0  0  0  0  0  0  0  0  0  0  0
    9.9601   49.2734  132.2306 C   0  0  0  0  0  0  0  0  0  0  0  0
   10.2045   48.9564  133.5530 C   0  0  0  0  0  0  0  0  0  0  0  0
    9.7982   47.6843  133.7370 N   0  0  0  0  0  0  0  0  0  0  0  0
    9.3331   47.2591  132.5818 C   0  0  0  0  0  0  0  0  0  0  0  0
  2  3  1  0  0  0
  3  4  2  0  0  0
  4  5  1  0  0  0
  5  6  2  0  0  0
  6  7  1  0  0  0
  7  8  2  0  0  0
  6  1  1  0  0  0
  1  9  1  0  0  0
  9 10  2  0  0  0
 10 11  1  0  0  0
 11 12  2  0  0  0
 12 13  1  0  0  0
  1 15  1  0  0  0
 15 16  1  0  0  0
 16 17  2  0  0  0
 17 18  1  0  0  0
 18 19  2  0  0  0
  8  3  1  0  0  0
 13  9  1  0  0  0
 19 15  1  0  0  0
 13 14  1  0  0  0
M  END
> <minimizedAffinity>
-5.77558

> <CNNscore>
0.4022902846

> <CNNaffinity>
6.5735564232

> <CNN_VS>
2.6444778442

> <CNNaffinity_variance>
0.0157206096

$$$$
[H]c1nc([H])n([H])c1C([H])(c1c([H])c([H])c(Cl)c([H])c1[H])n1c([H])nc([H])c1[H]


 19 21  0  0  0  0  0  0  0  0999 V2000
    8.8612   45.4299  131.1274 C   0  0  0  0  0  0  0  0  0  0  0  0
    6.9043   50.9332  129.4743 Cl  0  0  0  0  0  0  0  0  0  0  0  0
    7.4589   49.3355  129.9428 C   0  0  0  0  0  0  0  0  0  0  0  0
    8.5037   49.1982  130.8104 C   0  0  0  0  0  0  0  0  0  0  0  0
    8.9415   47.9638  131.1802 C   0  0  0  0  0  0  0  0  0  0  0  0
    8.3619   46.7781  130.7058 C   0  0  0  0  0  0  0  0  0  0  0  0
    7.3124   46.9668  129.8340 C   0  0  0  0  0  0  0  0  0  0  0  0
    6.8579   48.2151  129.4503 C   0  0  0  0  0  0  0  0  0  0  0  0
    9.3010   44.6101  129.9889 C   0  0  0  0  0  0  0  0  0  0  0  0
    8.9210   43.3427  129.6195 C   0  0  0  0  0  0  0  0  0  0  0  0
    9.5628   42.9540  128.5053 N   0  0  0  0  0  0  0  0  0  0  0  0
   10.3493   43.9598  128.1587 C   0  0  0  0  0  0  0  0  0  0  0  0
   10.2116   44.9486  129.0202 N   0  0  0  0  0  0  0  0  0  0  0  0
   10.7263   45.8552  128.9640 H   0  0  0  0  0  0  0  0  0  0  0  0
    9.7180   45.4497  132.2676 N   0  0  0  0  0  0  0  0  0  0  0  0
   11.0516   45.6034  132.3607 C   0  0  0  0  0  0  0  0  0  0  0  0
   11.4400   45.5548  133.6857 C   0  0  0  0  0  0  0  0  0  0  0  0
   10.3243   45.3679  134.4190 N   0  0  0  0  0  0  0  0  0  0  0  0
    9.3163   45.3074  133.5753 C   0  0  0  0  0  0  0  0  0  0  0  0
  2  3  1  0  0  0
  3  4  2  0  0  0
  4  5  1  0  0  0
  5  6  2  0  0  0
  6  7  1  0  0  0
  7  8  2  0  0  0
  6  1  1  0  0  0
  1  9  1  0  0  0
  9 10  2  0  0  0
 10 11  1  0  0  0
 11 12  2  0  0  0
 12 13  1  0  0  0
  1 15  1  0  0  0
 15 16  1  0  0  0
 16 17  2  0  0  0
 17 18  1  0  0  0
 18 19  2  0  0  0
  8  3  1  0  0  0
 13  9  1  0  0  0
 19 15  1  0  0  0
 13 14  1  0  0  0
M  END
> <minimizedAffinity>
-7.28220

> <CNNscore>
0.3255895376

> <CNNaffinity>
6.7946882248

> <CNN_VS>
2.2122793198

> <CNNaffinity_variance>
0.0850056484

$$$$
[H]c1nc([H])n([H])c1C([H])(c1c([H])c([H])c(Cl)c([H])c1[H])n1c([H])nc([H])c1[H]


 19 21  0  0  0  0  0  0  0  0999 V2000
    9.8852   47.1972  131.4342 C   0  0  0  0  0  0  0  0  0  0  0  0
    9.7707   42.6094  127.4608 Cl  0  0  0  0  0  0  0  0  0  0  0  0
    9.8164   43.9421  128.6019 C   0  0  0  0  0  0  0  0  0  0  0  0
    8.9036   44.0109  129.6143 C   0  0  0  0  0  0  0  0  0  0  0  0
    8.9302   45.0400  130.5045 C   0  0  0  0  0  0  0  0  0  0  0  0
    9.8754   46.0743  130.4425 C   0  0  0  0  0  0  0  0  0  0  0  0
   10.7748   45.9620  129.4053 C   0  0  0  0  0  0  0  0  0  0  0  0
   10.7585   44.9218  128.4944 C   0  0  0  0  0  0  0  0  0  0  0  0
    9.0294   48.3199  131.0233 C   0  0  0  0  0  0  0  0  0  0  0  0
    9.2355   49.6726  131.1451 C   0  0  0  0  0  0  0  0  0  0  0  0
    8.2024   50.3640  130.6359 N   0  0  0  0  0  0  0  0  0  0  0  0
    7.3380   49.4671  130.1901 C   0  0  0  0  0  0  0  0  0  0  0  0
    7.8050   48.2534  130.4082 N   0  0  0  0  0  0  0  0  0  0  0  0
    7.3065   47.3743  130.1463 H   0  0  0  0  0  0  0  0  0  0  0  0
    9.7822   46.7817  132.7949 N   0  0  0  0  0  0  0  0  0  0  0  0
    8.8620   47.0703  133.7334 C   0  0  0  0  0  0  0  0  0  0  0  0
    9.1796   46.4314  134.9166 C   0  0  0  0  0  0  0  0  0  0  0  0
   10.3152   45.7381  134.7000 N   0  0  0  0  0  0  0  0  0  0  0  0
   10.6619   45.9507  133.4485 C   0  0  0  0  0  0  0  0  0  0  0  0
  2  3  1  0  0  0
  3  4  2  0  0  0
  4  5  1  0  0  0
  5  6  2  0  0  0
  6  7  1  0  0  0
  7  8  2  0  0  0
  6  1  1  0  0  0
  1  9  1  0  0  0
  9 10  2  0  0  0
 10 11  1  0  0  0
 11 12  2  0  0  0
 12 13  1  0  0  0
  1 15  1  0  0  0
 15 16  1  0  0  0
 16 17  2  0  0  0
 17 18  1  0  0  0
 18 19  2  0  0  0
  8  3  1  0  0  0
 13  9  1  0  0  0
 19 15  1  0  0  0
 13 14  1  0  0  0
M  END
> <minimizedAffinity>
-5.88832

> <CNNscore>
0.3191326857

> <CNNaffinity>
6.7376928329

> <CNN_VS>
2.1502180099

> <CNNaffinity_variance>
0.0389971361

$$$$
[H]c1nc([H])n([H])c1C([H])(c1c([H])c([H])c(Cl)c([H])c1[H])n1c([H])nc([H])c1[H]


 19 21  0  0  0  0  0  0  0  0999 V2000
   10.3329   46.0218  130.3793 C   0  0  0  0  0  0  0  0  0  0  0  0
   11.5318   43.6131  135.8208 Cl  0  0  0  0  0  0  0  0  0  0  0  0
   11.1701   44.3124  134.2523 C   0  0  0  0  0  0  0  0  0  0  0  0
   12.1362   44.3777  133.2902 C   0  0  0  0  0  0  0  0  0  0  0  0
   11.8662   44.9180  132.0707 C   0  0  0  0  0  0  0  0  0  0  0  0
   10.6067   45.4317  131.7289 C   0  0  0  0  0  0  0  0  0  0  0  0
    9.6653   45.3440  132.7306 C   0  0  0  0  0  0  0  0  0  0  0  0
    9.9268   44.7975  133.9736 C   0  0  0  0  0  0  0  0  0  0  0  0
   10.1385   44.9959  129.3442 C   0  0  0  0  0  0  0  0  0  0  0  0
    9.2472   43.9514  129.2982 C   0  0  0  0  0  0  0  0  0  0  0  0
    9.3949   43.2431  128.1665 N   0  0  0  0  0  0  0  0  0  0  0  0
   10.3715   43.8237  127.4887 C   0  0  0  0  0  0  0  0  0  0  0  0
   10.8258   44.8608  128.1646 N   0  0  0  0  0  0  0  0  0  0  0  0
   11.5982   45.4835  127.8398 H   0  0  0  0  0  0  0  0  0  0  0  0
    9.4032   47.1035  130.3875 N   0  0  0  0  0  0  0  0  0  0  0  0
    8.1223   47.1629  129.9794 C   0  0  0  0  0  0  0  0  0  0  0  0
    7.6203   48.4334  130.1866 C   0  0  0  0  0  0  0  0  0  0  0  0
    8.6114   49.1668  130.7318 N   0  0  0  0  0  0  0  0  0  0  0  0
    9.6564   48.3752  130.8459 C   0  0  0  0  0  0  0  0  0  0  0  0
  2  3  1  0  0  0
  3  4  2  0  0  0
  4  5  1  0  0  0
  5  6  2  0  0  0
  6  7  1  0  0  0
  7  8  2  0  0  0
  6  1  1  0  0  0
  1  9  1  0  0  0
  9 10  2  0  0  0
 10 11  1  0  0  0
 11 12  2  0  0  0
 12 13  1  0  0  0
  1 15  1  0  0  0
 15 16  1  0  0  0
 16 17  2  0  0  0
 17 18  1  0  0  0
 18 19  2  0  0  0
  8  3  1  0  0  0
 13  9  1  0  0  0
 19 15  1  0  0  0
 13 14  1  0  0  0
M  END
> <minimizedAffinity>
-5.50323

> <CNNscore>
0.3164481521

> <CNNaffinity>
6.7906212807

> <CNN_VS>
2.1488795280

> <CNNaffinity_variance>
0.0669163689

$$$$
[H]OC(=O)C([H])([H])[C@@]([H])(C(=O)N([H])[H])N([H])C(=O)[C@@]([H])(N([H])C(=O)[C@@]([H])(N([H])C(=O)[C@@]([H])(N([H])C(=O)[C@@]([H])(N([H])C(=O)[C@@]([H])(N([H])[H])C([H])([H])c1c([H])c([H])c(O[H])c([H])c1[H])C([H])(C([H])([H])[H])C([H])([H])[H])C([H])([H])C([H])(C([H])([H])[H])C([H])([H])[H])C([H])([H])C([H])([H])C(=O)N([H])[H])C([H])([H])C([H])(C([H])([H])[H])C([H])([H])[H]


 66 66  0  0  0  0  0  0  0  0999 V2000
   12.3194   44.7936  133.4240 N   0  0  0  0  0  0  0  0  0  0  0  0
   13.0200   44.5284  134.6168 C   0  0  0  0  0  0  0  0  0  0  0  0
   13.9725   45.2513  134.9551 O   0  0  0  0  0  0  0  0  0  0  0  0
   11.5315   43.9878  133.2788 H   0  0  0  0  0  0  0  0  0  0  0  0
   12.6057   43.3777  135.4615 C   0  0  0  0  0  0  0  0  0  0  0  0
   13.5218   42.9236  136.4280 N   0  0  0  0  0  0  0  0  0  0  0  0
   14.9002   42.8405  136.5634 C   0  0  0  0  0  0  0  0  0  0  0  0
   15.7175   43.1901  135.7142 O   0  0  0  0  0  0  0  0  0  0  0  0
   12.9913   42.5232  137.3565 H   0  0  0  0  0  0  0  0  0  0  0  0
   15.4980   42.2902  137.8488 C   0  0  0  0  0  0  0  0  0  0  0  0
   16.3659   41.1853  137.6545 N   0  0  0  0  0  0  0  0  0  0  0  0
   16.5770   40.1004  138.5403 C   0  0  0  0  0  0  0  0  0  0  0  0
   15.9530   39.9957  139.6309 O   0  0  0  0  0  0  0  0  0  0  0  0
   16.9413   41.1368  136.7428 H   0  0  0  0  0  0  0  0  0  0  0  0
   17.5560   39.0556  138.2084 C   0  0  0  0  0  0  0  0  0  0  0  0
   18.2918   38.6109  139.3839 N   0  0  0  0  0  0  0  0  0  0  0  0
   19.1069   39.2555  139.5924 H   0  0  0  0  0  0  0  0  0  0  0  0
   17.6841   38.6990  140.2454 H   0  0  0  0  0  0  0  0  0  0  0  0
   16.8596   37.8918  137.5349 C   0  0  0  0  0  0  0  0  0  0  0  0
   16.8254   36.7597  138.5275 C   0  0  0  0  0  0  0  0  0  0  0  0
   16.3426   35.5239  138.1411 C   0  0  0  0  0  0  0  0  0  0  0  0
   16.3312   34.4465  139.0015 C   0  0  0  0  0  0  0  0  0  0  0  0
   16.8105   34.5665  140.3022 C   0  0  0  0  0  0  0  0  0  0  0  0
   16.7970   33.4744  141.1585 O   0  0  0  0  0  0  0  0  0  0  0  0
   17.2941   35.8104  140.6884 C   0  0  0  0  0  0  0  0  0  0  0  0
   17.2962   36.8836  139.8034 C   0  0  0  0  0  0  0  0  0  0  0  0
   17.6264   32.8637  141.1663 H   0  0  0  0  0  0  0  0  0  0  0  0
   16.2115   43.4040  138.5870 C   0  0  0  0  0  0  0  0  0  0  0  0
   17.7081   43.2279  138.5688 C   0  0  0  0  0  0  0  0  0  0  0  0
   15.7991   43.3033  140.0569 C   0  0  0  0  0  0  0  0  0  0  0  0
   11.2940   43.5631  136.1380 C   0  0  0  0  0  0  0  0  0  0  0  0
   10.0578   43.8645  135.4439 C   0  0  0  0  0  0  0  0  0  0  0  0
    9.6524   45.2708  135.1704 C   0  0  0  0  0  0  0  0  0  0  0  0
    9.9146   43.1238  134.1062 C   0  0  0  0  0  0  0  0  0  0  0  0
   12.3051   45.7394  132.3805 C   0  0  0  0  0  0  0  0  0  0  0  0
   10.6139   45.6991  130.4863 N   0  0  0  0  0  0  0  0  0  0  0  0
   10.8948   45.7002  131.8585 C   0  0  0  0  0  0  0  0  0  0  0  0
    9.9783   45.6768  132.6986 O   0  0  0  0  0  0  0  0  0  0  0  0
   11.4627   45.7130  129.8313 H   0  0  0  0  0  0  0  0  0  0  0  0
    9.2621   45.6720  129.8908 C   0  0  0  0  0  0  0  0  0  0  0  0
    8.5403   46.8076  130.3702 C   0  0  0  0  0  0  0  0  0  0  0  0
    7.5653   46.5411  131.1971 O   0  0  0  0  0  0  0  0  0  0  0  0
    8.6626   48.1846  130.1260 N   0  0  0  0  0  0  0  0  0  0  0  0
    9.3991   48.5596  129.5037 H   0  0  0  0  0  0  0  0  0  0  0  0
    7.7741   49.2010  130.7472 C   0  0  0  0  0  0  0  0  0  0  0  0
    6.8445   49.6570  129.6344 C   0  0  0  0  0  0  0  0  0  0  0  0
    5.9497   48.8550  128.9291 N   0  0  0  0  0  0  0  0  0  0  0  0
    6.8588   50.8961  129.2894 O   0  0  0  0  0  0  0  0  0  0  0  0
    6.1820   48.2966  128.0848 H   0  0  0  0  0  0  0  0  0  0  0  0
    4.9359   48.7788  129.2423 H   0  0  0  0  0  0  0  0  0  0  0  0
    8.6140   50.3198  131.2445 C   0  0  0  0  0  0  0  0  0  0  0  0
    9.5830   50.0062  132.2915 C   0  0  0  0  0  0  0  0  0  0  0  0
    9.7935   50.9708  133.2994 O   0  0  0  0  0  0  0  0  0  0  0  0
   10.2446   48.9500  132.3722 O   0  0  0  0  0  0  0  0  0  0  0  0
    9.3573   50.7206  134.1963 H   0  0  0  0  0  0  0  0  0  0  0  0
    8.6933   44.2873  130.0473 C   0  0  0  0  0  0  0  0  0  0  0  0
    9.6547   42.9788  128.2611 C   0  0  0  0  0  0  0  0  0  0  0  0
    9.5568   43.1280  129.7993 C   0  0  0  0  0  0  0  0  0  0  0  0
    8.9810   41.8239  130.3079 C   0  0  0  0  0  0  0  0  0  0  0  0
   13.2831   45.5455  131.2661 C   0  0  0  0  0  0  0  0  0  0  0  0
   13.2918   44.2060  130.6111 C   0  0  0  0  0  0  0  0  0  0  0  0
   13.5451   44.3289  129.1371 C   0  0  0  0  0  0  0  0  0  0  0  0
   14.8387   44.0361  128.6464 N   0  0  0  0  0  0  0  0  0  0  0  0
   12.6212   44.6839  128.3688 O   0  0  0  0  0  0  0  0  0  0  0  0
   15.6545   44.6044  128.9280 H   0  0  0  0  0  0  0  0  0  0  0  0
   14.9633   43.2196  127.9800 H   0  0  0  0  0  0  0  0  0  0  0  0
 57 58  1  0  0  0
 58 59  1  0  0  0
 58 56  1  0  0  0
 56 40  1  0  0  0
 40 36  1  0  0  0
 36 37  1  0  0  0
 37 38  2  0  0  0
 37 35  1  0  0  0
 35 60  1  0  0  0
 60 61  1  0  0  0
 61 62  1  0  0  0
 62 63  1  0  0  0
 62 64  2  0  0  0
 35  1  1  0  0  0
  1  2  1  0  0  0
  2  3  2  0  0  0
  2  5  1  0  0  0
  5 31  1  0  0  0
 31 32  1  0  0  0
 32 33  1  0  0  0
 32 34  1  0  0  0
  5  6  1  0  0  0
  6  7  1  0  0  0
  7  8  2  0  0  0
  7 10  1  0  0  0
 10 11  1  0  0  0
 11 12  1  0  0  0
 12 13  2  0  0  0
 12 15  1  0  0  0
 15 16  1  0  0  0
 15 19  1  0  0  0
 19 20  1  0  0  0
 20 21  2  0  0  0
 21 22  1  0  0  0
 22 23  2  0  0  0
 23 24  1  0  0  0
 23 25  1  0  0  0
 25 26  2  0  0  0
 10 28  1  0  0  0
 28 29  1  0  0  0
 28 30  1  0  0  0
 40 41  1  0  0  0
 41 42  2  0  0  0
 41 43  1  0  0  0
 43 45  1  0  0  0
 45 51  1  0  0  0
 51 52  1  0  0  0
 52 53  1  0  0  0
 52 54  2  0  0  0
 45 46  1  0  0  0
 46 47  1  0  0  0
 46 48  2  0  0  0
 26 20  1  0  0  0
 36 39  1  0  0  0
 63 65  1  0  0  0
 63 66  1  0  0  0
  1  4  1  0  0  0
  6  9  1  0  0  0
 11 14  1  0  0  0
 16 17  1  0  0  0
 16 18  1  0  0  0
 24 27  1  0  0  0
 43 44  1  0  0  0
 53 55  1  0  0  0
 47 49  1  0  0  0
 47 50  1  0  0  0
M  END
> <minimizedAffinity>
9.94351

> <CNNscore>
0.4505345225

> <CNNaffinity>
7.8031015396

> <CNN_VS>
3.5155665874

> <CNNaffinity_variance>
0.6193195581

$$$$
[H]OC(=O)C([H])([H])[C@@]([H])(C(=O)N([H])[H])N([H])C(=O)[C@@]([H])(N([H])C(=O)[C@@]([H])(N([H])C(=O)[C@@]([H])(N([H])C(=O)[C@@]([H])(N([H])C(=O)[C@@]([H])(N([H])[H])C([H])([H])c1c([H])c([H])c(O[H])c([H])c1[H])C([H])(C([H])([H])[H])C([H])([H])[H])C([H])([H])C([H])(C([H])([H])[H])C([H])([H])[H])C([H])([H])C([H])([H])C(=O)N([H])[H])C([H])([H])C([H])(C([H])([H])[H])C([H])([H])[H]


 66 66  0  0  0  0  0  0  0  0999 V2000
    8.6101   49.9918  130.2113 N   0  0  0  0  0  0  0  0  0  0  0  0
    7.7139   51.0392  129.9219 C   0  0  0  0  0  0  0  0  0  0  0  0
    7.7578   52.0963  130.5739 O   0  0  0  0  0  0  0  0  0  0  0  0
    8.3634   49.1074  129.5419 H   0  0  0  0  0  0  0  0  0  0  0  0
    6.7203   50.8637  128.8305 C   0  0  0  0  0  0  0  0  0  0  0  0
    6.7523   51.7914  127.7732 N   0  0  0  0  0  0  0  0  0  0  0  0
    6.9250   53.1602  127.6256 C   0  0  0  0  0  0  0  0  0  0  0  0
    7.0927   53.9562  128.5472 O   0  0  0  0  0  0  0  0  0  0  0  0
    6.6062   51.2826  126.7615 H   0  0  0  0  0  0  0  0  0  0  0  0
    6.9251   53.7725  126.2337 C   0  0  0  0  0  0  0  0  0  0  0  0
    6.6023   55.1535  126.2111 N   0  0  0  0  0  0  0  0  0  0  0  0
    7.4734   56.2377  126.4790 C   0  0  0  0  0  0  0  0  0  0  0  0
    8.6935   56.0655  126.7465 O   0  0  0  0  0  0  0  0  0  0  0  0
    5.5915   55.4419  125.9662 H   0  0  0  0  0  0  0  0  0  0  0  0
    6.9639   57.6162  126.4626 C   0  0  0  0  0  0  0  0  0  0  0  0
    6.6156   58.0480  125.1161 N   0  0  0  0  0  0  0  0  0  0  0  0
    7.4686   58.3972  124.5929 H   0  0  0  0  0  0  0  0  0  0  0  0
    6.2989   57.2183  124.5410 H   0  0  0  0  0  0  0  0  0  0  0  0
    5.7754   57.7375  127.3931 C   0  0  0  0  0  0  0  0  0  0  0  0
    4.5725   58.0428  126.5400 C   0  0  0  0  0  0  0  0  0  0  0  0
    4.7346   58.7090  125.3401 C   0  0  0  0  0  0  0  0  0  0  0  0
    3.6691   58.9728  124.5055 C   0  0  0  0  0  0  0  0  0  0  0  0
    2.3803   58.5734  124.8451 C   0  0  0  0  0  0  0  0  0  0  0  0
    1.3159   58.8416  123.9958 O   0  0  0  0  0  0  0  0  0  0  0  0
    2.2202   57.9050  126.0525 C   0  0  0  0  0  0  0  0  0  0  0  0
    3.3095   57.6493  126.8788 C   0  0  0  0  0  0  0  0  0  0  0  0
    1.0865   58.1366  123.2807 H   0  0  0  0  0  0  0  0  0  0  0  0
    8.2693   53.5294  125.5789 C   0  0  0  0  0  0  0  0  0  0  0  0
    9.0875   54.7911  125.4794 C   0  0  0  0  0  0  0  0  0  0  0  0
    7.9939   53.0978  124.1372 C   0  0  0  0  0  0  0  0  0  0  0  0
    6.7099   49.5015  128.2330 C   0  0  0  0  0  0  0  0  0  0  0  0
    5.7201   48.4880  128.5393 C   0  0  0  0  0  0  0  0  0  0  0  0
    6.1261   47.1107  128.9332 C   0  0  0  0  0  0  0  0  0  0  0  0
    4.6959   48.9360  129.5924 C   0  0  0  0  0  0  0  0  0  0  0  0
    9.6970   49.7203  131.0649 C   0  0  0  0  0  0  0  0  0  0  0  0
    9.2123   47.3096  130.4295 N   0  0  0  0  0  0  0  0  0  0  0  0
   10.1348   48.3323  130.6841 C   0  0  0  0  0  0  0  0  0  0  0  0
   11.3584   48.1223  130.6110 O   0  0  0  0  0  0  0  0  0  0  0  0
    8.1772   47.5782  130.5077 H   0  0  0  0  0  0  0  0  0  0  0  0
    9.5562   45.9209  130.0608 C   0  0  0  0  0  0  0  0  0  0  0  0
    9.9923   45.2412  131.2390 C   0  0  0  0  0  0  0  0  0  0  0  0
   10.9778   45.8103  131.8795 O   0  0  0  0  0  0  0  0  0  0  0  0
    9.5730   44.0557  131.8633 N   0  0  0  0  0  0  0  0  0  0  0  0
    8.7897   43.4946  131.4865 H   0  0  0  0  0  0  0  0  0  0  0  0
   10.1940   43.5298  133.1068 C   0  0  0  0  0  0  0  0  0  0  0  0
   11.4790   42.8523  132.6595 C   0  0  0  0  0  0  0  0  0  0  0  0
   12.7630   43.3871  132.7418 N   0  0  0  0  0  0  0  0  0  0  0  0
   11.4090   41.6709  132.1557 O   0  0  0  0  0  0  0  0  0  0  0  0
   13.2038   44.0010  132.0294 H   0  0  0  0  0  0  0  0  0  0  0  0
   13.3793   43.1754  133.5828 H   0  0  0  0  0  0  0  0  0  0  0  0
    9.2570   42.5593  133.7269 C   0  0  0  0  0  0  0  0  0  0  0  0
    8.0445   42.2381  132.9785 C   0  0  0  0  0  0  0  0  0  0  0  0
    6.9560   41.6980  133.6955 O   0  0  0  0  0  0  0  0  0  0  0  0
    7.8872   42.4028  131.7506 O   0  0  0  0  0  0  0  0  0  0  0  0
    6.1947   42.3729  133.8445 H   0  0  0  0  0  0  0  0  0  0  0  0
   10.4257   45.9487  128.8325 C   0  0  0  0  0  0  0  0  0  0  0  0
   11.5982   43.8930  128.3568 C   0  0  0  0  0  0  0  0  0  0  0  0
   10.4171   44.7966  127.9250 C   0  0  0  0  0  0  0  0  0  0  0  0
   10.6795   45.1618  126.4799 C   0  0  0  0  0  0  0  0  0  0  0  0
    9.4511   49.8078  132.5372 C   0  0  0  0  0  0  0  0  0  0  0  0
   10.2212   48.8665  133.3998 C   0  0  0  0  0  0  0  0  0  0  0  0
    9.3703   47.7050  133.8230 C   0  0  0  0  0  0  0  0  0  0  0  0
    9.8880   46.8001  134.7785 N   0  0  0  0  0  0  0  0  0  0  0  0
    8.2275   47.5524  133.3326 O   0  0  0  0  0  0  0  0  0  0  0  0
   10.7251   46.2308  134.5714 H   0  0  0  0  0  0  0  0  0  0  0  0
    9.4029   46.7112  135.7182 H   0  0  0  0  0  0  0  0  0  0  0  0
 57 58  1  0  0  0
 58 59  1  0  0  0
 58 56  1  0  0  0
 56 40  1  0  0  0
 40 36  1  0  0  0
 36 37  1  0  0  0
 37 38  2  0  0  0
 37 35  1  0  0  0
 35 60  1  0  0  0
 60 61  1  0  0  0
 61 62  1  0  0  0
 62 63  1  0  0  0
 62 64  2  0  0  0
 35  1  1  0  0  0
  1  2  1  0  0  0
  2  3  2  0  0  0
  2  5  1  0  0  0
  5 31  1  0  0  0
 31 32  1  0  0  0
 32 33  1  0  0  0
 32 34  1  0  0  0
  5  6  1  0  0  0
  6  7  1  0  0  0
  7  8  2  0  0  0
  7 10  1  0  0  0
 10 11  1  0  0  0
 11 12  1  0  0  0
 12 13  2  0  0  0
 12 15  1  0  0  0
 15 16  1  0  0  0
 15 19  1  0  0  0
 19 20  1  0  0  0
 20 21  2  0  0  0
 21 22  1  0  0  0
 22 23  2  0  0  0
 23 24  1  0  0  0
 23 25  1  0  0  0
 25 26  2  0  0  0
 10 28  1  0  0  0
 28 29  1  0  0  0
 28 30  1  0  0  0
 40 41  1  0  0  0
 41 42  2  0  0  0
 41 43  1  0  0  0
 43 45  1  0  0  0
 45 51  1  0  0  0
 51 52  1  0  0  0
 52 53  1  0  0  0
 52 54  2  0  0  0
 45 46  1  0  0  0
 46 47  1  0  0  0
 46 48  2  0  0  0
 26 20  1  0  0  0
 36 39  1  0  0  0
 63 65  1  0  0  0
 63 66  1  0  0  0
  1  4  1  0  0  0
  6  9  1  0  0  0
 11 14  1  0  0  0
 16 17  1  0  0  0
 16 18  1  0  0  0
 24 27  1  0  0  0
 43 44  1  0  0  0
 53 55  1  0  0  0
 47 49  1  0  0  0
 47 50  1  0  0  0
M  END
> <minimizedAffinity>
2.41038

> <CNNscore>
0.3998987079

> <CNNaffinity>
7.4052400589

> <CNN_VS>
2.9613459110

> <CNNaffinity_variance>
0.2045023888

$$$$
[H]OC(=O)C([H])([H])[C@@]([H])(C(=O)N([H])[H])N([H])C(=O)[C@@]([H])(N([H])C(=O)[C@@]([H])(N([H])C(=O)[C@@]([H])(N([H])C(=O)[C@@]([H])(N([H])C(=O)[C@@]([H])(N([H])[H])C([H])([H])c1c([H])c([H])c(O[H])c([H])c1[H])C([H])(C([H])([H])[H])C([H])([H])[H])C([H])([H])C([H])(C([H])([H])[H])C([H])([H])[H])C([H])([H])C([H])([H])C(=O)N([H])[H])C([H])([H])C([H])(C([H])([H])[H])C([H])([H])[H]


 66 66  0  0  0  0  0  0  0  0999 V2000
    8.6093   45.4760  130.1707 N   0  0  0  0  0  0  0  0  0  0  0  0
    7.6947   46.4769  130.5520 C   0  0  0  0  0  0  0  0  0  0  0  0
    6.4994   46.1921  130.7382 O   0  0  0  0  0  0  0  0  0  0  0  0
    9.6247   45.9573  130.0013 H   0  0  0  0  0  0  0  0  0  0  0  0
    8.1768   47.8719  130.7283 C   0  0  0  0  0  0  0  0  0  0  0  0
    7.4664   48.8890  130.0649 N   0  0  0  0  0  0  0  0  0  0  0  0
    7.5429   50.2689  129.9409 C   0  0  0  0  0  0  0  0  0  0  0  0
    8.3749   50.9845  130.4949 O   0  0  0  0  0  0  0  0  0  0  0  0
    6.5971   48.4678  129.4559 H   0  0  0  0  0  0  0  0  0  0  0  0
    6.5487   51.0006  129.0530 C   0  0  0  0  0  0  0  0  0  0  0  0
    7.1471   51.7137  127.9828 N   0  0  0  0  0  0  0  0  0  0  0  0
    7.1577   53.1173  127.7933 C   0  0  0  0  0  0  0  0  0  0  0  0
    6.6333   53.9086  128.6231 O   0  0  0  0  0  0  0  0  0  0  0  0
    7.6575   51.1547  127.2136 H   0  0  0  0  0  0  0  0  0  0  0  0
    7.7826   53.6963  126.5956 C   0  0  0  0  0  0  0  0  0  0  0  0
    7.8744   52.7279  125.5117 N   0  0  0  0  0  0  0  0  0  0  0  0
    8.7327   52.1150  125.6170 H   0  0  0  0  0  0  0  0  0  0  0  0
    7.0735   52.0394  125.5733 H   0  0  0  0  0  0  0  0  0  0  0  0
    7.0155   54.9262  126.1574 C   0  0  0  0  0  0  0  0  0  0  0  0
    7.3772   55.1863  124.7188 C   0  0  0  0  0  0  0  0  0  0  0  0
    8.4540   55.9989  124.4190 C   0  0  0  0  0  0  0  0  0  0  0  0
    8.8490   56.2318  123.1186 C   0  0  0  0  0  0  0  0  0  0  0  0
    8.1709   55.6508  122.0516 C   0  0  0  0  0  0  0  0  0  0  0  0
    8.5795   55.8898  120.7469 O   0  0  0  0  0  0  0  0  0  0  0  0
    7.0880   54.8353  122.3559 C   0  0  0  0  0  0  0  0  0  0  0  0
    6.7073   54.6142  123.6753 C   0  0  0  0  0  0  0  0  0  0  0  0
    9.2758   55.2492  120.3399 H   0  0  0  0  0  0  0  0  0  0  0  0
    5.5243   50.0153  128.5291 C   0  0  0  0  0  0  0  0  0  0  0  0
    4.6103   49.5155  129.6180 C   0  0  0  0  0  0  0  0  0  0  0  0
    6.2940   48.7881  128.0367 C   0  0  0  0  0  0  0  0  0  0  0  0
    8.3316   48.2851  132.1489 C   0  0  0  0  0  0  0  0  0  0  0  0
    9.3620   47.7793  133.0339 C   0  0  0  0  0  0  0  0  0  0  0  0
   10.4507   48.6645  133.5320 C   0  0  0  0  0  0  0  0  0  0  0  0
    8.8030   47.0698  134.2761 C   0  0  0  0  0  0  0  0  0  0  0  0
    8.6394   44.0866  129.9417 C   0  0  0  0  0  0  0  0  0  0  0  0
   11.0779   44.4547  130.5486 N   0  0  0  0  0  0  0  0  0  0  0  0
    9.9418   43.6356  130.5447 C   0  0  0  0  0  0  0  0  0  0  0  0
    9.9750   42.4941  131.0371 O   0  0  0  0  0  0  0  0  0  0  0  0
   10.9602   45.4261  130.1102 H   0  0  0  0  0  0  0  0  0  0  0  0
   12.3945   44.0870  131.1089 C   0  0  0  0  0  0  0  0  0  0  0  0
   12.3494   44.2862  132.5227 C   0  0  0  0  0  0  0  0  0  0  0  0
   11.4818   45.1711  132.9345 O   0  0  0  0  0  0  0  0  0  0  0  0
   13.0664   43.7165  133.5867 N   0  0  0  0  0  0  0  0  0  0  0  0
   13.7812   42.9860  133.4266 H   0  0  0  0  0  0  0  0  0  0  0  0
   12.8463   44.0931  135.0074 C   0  0  0  0  0  0  0  0  0  0  0  0
   11.5765   43.3688  135.4237 C   0  0  0  0  0  0  0  0  0  0  0  0
   10.4996   43.0547  134.5973 N   0  0  0  0  0  0  0  0  0  0  0  0
   11.4549   42.9938  136.6481 O   0  0  0  0  0  0  0  0  0  0  0  0
    9.7016   43.6851  134.3866 H   0  0  0  0  0  0  0  0  0  0  0  0
   10.4465   42.1036  134.1236 H   0  0  0  0  0  0  0  0  0  0  0  0
   12.6798   45.5664  135.0836 C   0  0  0  0  0  0  0  0  0  0  0  0
   13.7922   46.3844  134.6072 C   0  0  0  0  0  0  0  0  0  0  0  0
   14.6575   46.9400  135.5733 O   0  0  0  0  0  0  0  0  0  0  0  0
   14.0453   46.6349  133.4102 O   0  0  0  0  0  0  0  0  0  0  0  0
   15.5662   46.4617  135.6254 H   0  0  0  0  0  0  0  0  0  0  0  0
   13.4702   44.7394  130.2826 C   0  0  0  0  0  0  0  0  0  0  0  0
   15.0802   43.0445  129.6810 C   0  0  0  0  0  0  0  0  0  0  0  0
   14.0157   44.0223  129.1254 C   0  0  0  0  0  0  0  0  0  0  0  0
   14.7440   44.9175  128.1461 C   0  0  0  0  0  0  0  0  0  0  0  0
    8.5285   43.6228  128.5246 C   0  0  0  0  0  0  0  0  0  0  0  0
    9.0674   44.5384  127.4784 C   0  0  0  0  0  0  0  0  0  0  0  0
   10.5418   44.7529  127.6579 C   0  0  0  0  0  0  0  0  0  0  0  0
   11.4214   43.6856  127.3634 N   0  0  0  0  0  0  0  0  0  0  0  0
   10.9707   45.8592  128.0606 O   0  0  0  0  0  0  0  0  0  0  0  0
   11.3893   42.8063  127.9052 H   0  0  0  0  0  0  0  0  0  0  0  0
   12.1209   43.7987  126.5733 H   0  0  0  0  0  0  0  0  0  0  0  0
 57 58  1  0  0  0
 58 59  1  0  0  0
 58 56  1  0  0  0
 56 40  1  0  0  0
 40 36  1  0  0  0
 36 37  1  0  0  0
 37 38  2  0  0  0
 37 35  1  0  0  0
 35 60  1  0  0  0
 60 61  1  0  0  0
 61 62  1  0  0  0
 62 63  1  0  0  0
 62 64  2  0  0  0
 35  1  1  0  0  0
  1  2  1  0  0  0
  2  3  2  0  0  0
  2  5  1  0  0  0
  5 31  1  0  0  0
 31 32  1  0  0  0
 32 33  1  0  0  0
 32 34  1  0  0  0
  5  6  1  0  0  0
  6  7  1  0  0  0
  7  8  2  0  0  0
  7 10  1  0  0  0
 10 11  1  0  0  0
 11 12  1  0  0  0
 12 13  2  0  0  0
 12 15  1  0  0  0
 15 16  1  0  0  0
 15 19  1  0  0  0
 19 20  1  0  0  0
 20 21  2  0  0  0
 21 22  1  0  0  0
 22 23  2  0  0  0
 23 24  1  0  0  0
 23 25  1  0  0  0
 25 26  2  0  0  0
 10 28  1  0  0  0
 28 29  1  0  0  0
 28 30  1  0  0  0
 40 41  1  0  0  0
 41 42  2  0  0  0
 41 43  1  0  0  0
 43 45  1  0  0  0
 45 51  1  0  0  0
 51 52  1  0  0  0
 52 53  1  0  0  0
 52 54  2  0  0  0
 45 46  1  0  0  0
 46 47  1  0  0  0
 46 48  2  0  0  0
 26 20  1  0  0  0
 36 39  1  0  0  0
 63 65  1  0  0  0
 63 66  1  0  0  0
  1  4  1  0  0  0
  6  9  1  0  0  0
 11 14  1  0  0  0
 16 17  1  0  0  0
 16 18  1  0  0  0
 24 27  1  0  0  0
 43 44  1  0  0  0
 53 55  1  0  0  0
 47 49  1  0  0  0
 47 50  1  0  0  0
M  END
> <minimizedAffinity>
8.49955

> <CNNscore>
0.3714175522

> <CNNaffinity>
7.6943902969

> <CNN_VS>
2.8578317165

> <CNNaffinity_variance>
0.6603999734

$$$$
[H]OC(=O)C([H])([H])[C@@]([H])(C(=O)N([H])[H])N([H])C(=O)[C@@]([H])(N([H])C(=O)[C@@]([H])(N([H])C(=O)[C@@]([H])(N([H])C(=O)[C@@]([H])(N([H])C(=O)[C@@]([H])(N([H])[H])C([H])([H])c1c([H])c([H])c(O[H])c([H])c1[H])C([H])(C([H])([H])[H])C([H])([H])[H])C([H])([H])C([H])(C([H])([H])[H])C([H])([H])[H])C([H])([H])C([H])([H])C(=O)N([H])[H])C([H])([H])C([H])(C([H])([H])[H])C([H])([H])[H]


 66 66  0  0  0  0  0  0  0  0999 V2000
    8.3807   48.1258  132.1196 N   0  0  0  0  0  0  0  0  0  0  0  0
    7.9505   47.0868  131.2715 C   0  0  0  0  0  0  0  0  0  0  0  0
    8.1496   45.9012  131.5863 O   0  0  0  0  0  0  0  0  0  0  0  0
    8.1508   49.1206  131.6207 H   0  0  0  0  0  0  0  0  0  0  0  0
    7.2576   47.4266  130.0011 C   0  0  0  0  0  0  0  0  0  0  0  0
    6.9124   48.7748  129.7948 N   0  0  0  0  0  0  0  0  0  0  0  0
    7.5772   49.9759  129.5929 C   0  0  0  0  0  0  0  0  0  0  0  0
    8.7985   50.1141  129.5705 O   0  0  0  0  0  0  0  0  0  0  0  0
    5.7802   48.9225  129.7798 H   0  0  0  0  0  0  0  0  0  0  0  0
    6.7777   51.2493  129.3664 C   0  0  0  0  0  0  0  0  0  0  0  0
    6.9028   51.7840  128.0586 N   0  0  0  0  0  0  0  0  0  0  0  0
    7.0540   53.1472  127.7051 C   0  0  0  0  0  0  0  0  0  0  0  0
    7.1274   54.0593  128.5726 O   0  0  0  0  0  0  0  0  0  0  0  0
    6.8847   51.1040  127.2207 H   0  0  0  0  0  0  0  0  0  0  0  0
    7.1192   53.5407  126.2905 C   0  0  0  0  0  0  0  0  0  0  0  0
    6.0525   54.4671  125.9372 N   0  0  0  0  0  0  0  0  0  0  0  0
    5.1547   53.9503  125.7130 H   0  0  0  0  0  0  0  0  0  0  0  0
    5.7924   55.0559  126.7768 H   0  0  0  0  0  0  0  0  0  0  0  0
    8.4766   54.1375  125.9835 C   0  0  0  0  0  0  0  0  0  0  0  0
    8.4261   54.6521  124.5691 C   0  0  0  0  0  0  0  0  0  0  0  0
    8.8887   55.9230  124.2854 C   0  0  0  0  0  0  0  0  0  0  0  0
    8.9023   56.4214  122.9998 C   0  0  0  0  0  0  0  0  0  0  0  0
    8.4463   55.6547  121.9320 C   0  0  0  0  0  0  0  0  0  0  0  0
    8.4676   56.1657  120.6417 O   0  0  0  0  0  0  0  0  0  0  0  0
    7.9806   54.3779  122.2203 C   0  0  0  0  0  0  0  0  0  0  0  0
    7.9765   53.8955  123.5250 C   0  0  0  0  0  0  0  0  0  0  0  0
    9.3162   56.0077  120.0798 H   0  0  0  0  0  0  0  0  0  0  0  0
    5.3223   50.9937  129.6998 C   0  0  0  0  0  0  0  0  0  0  0  0
    5.1206   50.6920  131.1625 C   0  0  0  0  0  0  0  0  0  0  0  0
    4.9076   49.7247  128.9526 C   0  0  0  0  0  0  0  0  0  0  0  0
    7.9620   46.9513  128.7801 C   0  0  0  0  0  0  0  0  0  0  0  0
    9.3706   47.1704  128.5182 C   0  0  0  0  0  0  0  0  0  0  0  0
   10.3224   47.4624  129.6253 C   0  0  0  0  0  0  0  0  0  0  0  0
   10.0196   46.0451  127.6989 C   0  0  0  0  0  0  0  0  0  0  0  0
    8.9976   48.2951  133.3743 C   0  0  0  0  0  0  0  0  0  0  0  0
   10.6353   46.3578  133.4945 N   0  0  0  0  0  0  0  0  0  0  0  0
   10.3688   47.7011  133.2009 C   0  0  0  0  0  0  0  0  0  0  0  0
   11.2677   48.4564  132.7910 O   0  0  0  0  0  0  0  0  0  0  0  0
    9.8021   45.7755  133.8356 H   0  0  0  0  0  0  0  0  0  0  0  0
   11.9510   45.6990  133.3623 C   0  0  0  0  0  0  0  0  0  0  0  0
   12.0603   45.1824  132.0351 C   0  0  0  0  0  0  0  0  0  0  0  0
   13.2489   45.2635  131.5004 O   0  0  0  0  0  0  0  0  0  0  0  0
   11.1294   44.5955  131.1634 N   0  0  0  0  0  0  0  0  0  0  0  0
   10.1454   44.4456  131.4452 H   0  0  0  0  0  0  0  0  0  0  0  0
   11.4795   44.1293  129.7964 C   0  0  0  0  0  0  0  0  0  0  0  0
   10.4032   43.1215  129.4270 C   0  0  0  0  0  0  0  0  0  0  0  0
    9.9769   42.8082  128.1380 N   0  0  0  0  0  0  0  0  0  0  0  0
    9.8128   42.4775  130.3709 O   0  0  0  0  0  0  0  0  0  0  0  0
    9.2445   43.3192  127.6077 H   0  0  0  0  0  0  0  0  0  0  0  0
   10.4059   41.9864  127.6160 H   0  0  0  0  0  0  0  0  0  0  0  0
   12.8216   43.4961  129.8441 C   0  0  0  0  0  0  0  0  0  0  0  0
   13.9084   44.1949  129.1630 C   0  0  0  0  0  0  0  0  0  0  0  0
   13.5770   45.3317  128.3957 O   0  0  0  0  0  0  0  0  0  0  0  0
   15.1139   43.8711  129.2029 O   0  0  0  0  0  0  0  0  0  0  0  0
   13.8395   46.2164  128.8491 H   0  0  0  0  0  0  0  0  0  0  0  0
   12.1612   44.7976  134.5493 C   0  0  0  0  0  0  0  0  0  0  0  0
   11.6393   43.0636  136.1454 C   0  0  0  0  0  0  0  0  0  0  0  0
   11.1333   43.8067  134.8846 C   0  0  0  0  0  0  0  0  0  0  0  0
   10.9465   42.7445  133.8227 C   0  0  0  0  0  0  0  0  0  0  0  0
    8.3126   47.6972  134.5614 C   0  0  0  0  0  0  0  0  0  0  0  0
    8.7284   46.3183  134.9476 C   0  0  0  0  0  0  0  0  0  0  0  0
    9.4370   46.3200  136.2704 C   0  0  0  0  0  0  0  0  0  0  0  0
    9.7832   47.5623  136.8507 N   0  0  0  0  0  0  0  0  0  0  0  0
    9.7098   45.2367  136.8379 O   0  0  0  0  0  0  0  0  0  0  0  0
   10.4533   48.1969  136.3860 H   0  0  0  0  0  0  0  0  0  0  0  0
    9.3435   47.8378  137.7765 H   0  0  0  0  0  0  0  0  0  0  0  0
 57 58  1  0  0  0
 58 59  1  0  0  0
 58 56  1  0  0  0
 56 40  1  0  0  0
 40 36  1  0  0  0
 36 37  1  0  0  0
 37 38  2  0  0  0
 37 35  1  0  0  0
 35 60  1  0  0  0
 60 61  1  0  0  0
 61 62  1  0  0  0
 62 63  1  0  0  0
 62 64  2  0  0  0
 35  1  1  0  0  0
  1  2  1  0  0  0
  2  3  2  0  0  0
  2  5  1  0  0  0
  5 31  1  0  0  0
 31 32  1  0  0  0
 32 33  1  0  0  0
 32 34  1  0  0  0
  5  6  1  0  0  0
  6  7  1  0  0  0
  7  8  2  0  0  0
  7 10  1  0  0  0
 10 11  1  0  0  0
 11 12  1  0  0  0
 12 13  2  0  0  0
 12 15  1  0  0  0
 15 16  1  0  0  0
 15 19  1  0  0  0
 19 20  1  0  0  0
 20 21  2  0  0  0
 21 22  1  0  0  0
 22 23  2  0  0  0
 23 24  1  0  0  0
 23 25  1  0  0  0
 25 26  2  0  0  0
 10 28  1  0  0  0
 28 29  1  0  0  0
 28 30  1  0  0  0
 40 41  1  0  0  0
 41 42  2  0  0  0
 41 43  1  0  0  0
 43 45  1  0  0  0
 45 51  1  0  0  0
 51 52  1  0  0  0
 52 53  1  0  0  0
 52 54  2  0  0  0
 45 46  1  0  0  0
 46 47  1  0  0  0
 46 48  2  0  0  0
 26 20  1  0  0  0
 36 39  1  0  0  0
 63 65  1  0  0  0
 63 66  1  0  0  0
  1  4  1  0  0  0
  6  9  1  0  0  0
 11 14  1  0  0  0
 16 17  1  0  0  0
 16 18  1  0  0  0
 24 27  1  0  0  0
 43 44  1  0  0  0
 53 55  1  0  0  0
 47 49  1  0  0  0
 47 50  1  0  0  0
M  END
> <minimizedAffinity>
5.16965

> <CNNscore>
0.3700428605

> <CNNaffinity>
7.8723859787

> <CNN_VS>
2.9131202698

> <CNNaffinity_variance>
0.2729109824

$$$$
[H]OC(=O)C([H])([H])[C@@]([H])(C(=O)N([H])[H])N([H])C(=O)[C@@]([H])(N([H])C(=O)[C@@]([H])(N([H])C(=O)[C@@]([H])(N([H])C(=O)[C@@]([H])(N([H])C(=O)[C@@]([H])(N([H])[H])C([H])([H])c1c([H])c([H])c(O[H])c([H])c1[H])C([H])(C([H])([H])[H])C([H])([H])[H])C([H])([H])C([H])(C([H])([H])[H])C([H])([H])[H])C([H])([H])C([H])([H])C(=O)N([H])[H])C([H])([H])C([H])(C([H])([H])[H])C([H])([H])[H]


 66 66  0  0  0  0  0  0  0  0999 V2000
    8.6551   47.4456  132.2874 N   0  0  0  0  0  0  0  0  0  0  0  0
    9.5445   47.6587  131.2162 C   0  0  0  0  0  0  0  0  0  0  0  0
   10.2521   46.7268  130.7977 O   0  0  0  0  0  0  0  0  0  0  0  0
    8.1522   48.4319  132.5436 H   0  0  0  0  0  0  0  0  0  0  0  0
    9.6239   49.0070  130.5958 C   0  0  0  0  0  0  0  0  0  0  0  0
    8.4661   49.4955  129.9630 N   0  0  0  0  0  0  0  0  0  0  0  0
    7.6786   50.6364  130.0223 C   0  0  0  0  0  0  0  0  0  0  0  0
    7.8654   51.5871  130.7790 O   0  0  0  0  0  0  0  0  0  0  0  0
    8.0704   48.7614  129.1830 H   0  0  0  0  0  0  0  0  0  0  0  0
    6.4842   50.7752  129.0916 C   0  0  0  0  0  0  0  0  0  0  0  0
    6.7405   51.5585  127.9371 N   0  0  0  0  0  0  0  0  0  0  0  0
    6.8803   52.9666  127.8754 C   0  0  0  0  0  0  0  0  0  0  0  0
    6.8175   53.6911  128.9055 O   0  0  0  0  0  0  0  0  0  0  0  0
    6.8459   51.0565  126.9876 H   0  0  0  0  0  0  0  0  0  0  0  0
    7.0949   53.6316  126.5824 C   0  0  0  0  0  0  0  0  0  0  0  0
    5.9955   54.5251  126.2448 N   0  0  0  0  0  0  0  0  0  0  0  0
    5.1947   53.9950  125.7964 H   0  0  0  0  0  0  0  0  0  0  0  0
    5.5647   54.9178  127.1277 H   0  0  0  0  0  0  0  0  0  0  0  0
    8.4121   54.3784  126.5992 C   0  0  0  0  0  0  0  0  0  0  0  0
    8.6037   54.9724  125.2286 C   0  0  0  0  0  0  0  0  0  0  0  0
    8.9237   54.1509  124.1644 C   0  0  0  0  0  0  0  0  0  0  0  0
    9.0669   54.6426  122.8841 C   0  0  0  0  0  0  0  0  0  0  0  0
    8.8923   55.9966  122.6157 C   0  0  0  0  0  0  0  0  0  0  0  0
    9.0359   56.4797  121.3225 O   0  0  0  0  0  0  0  0  0  0  0  0
    8.5718   56.8202  123.6877 C   0  0  0  0  0  0  0  0  0  0  0  0
    8.4320   56.3024  124.9711 C   0  0  0  0  0  0  0  0  0  0  0  0
    8.1973   56.5000  120.7247 H   0  0  0  0  0  0  0  0  0  0  0  0
    5.9900   49.3976  128.7009 C   0  0  0  0  0  0  0  0  0  0  0  0
    5.6250   48.5648  129.9027 C   0  0  0  0  0  0  0  0  0  0  0  0
    7.1614   48.6739  128.0340 C   0  0  0  0  0  0  0  0  0  0  0  0
   10.1162   50.0690  131.5137 C   0  0  0  0  0  0  0  0  0  0  0  0
    9.9020   50.0667  132.9471 C   0  0  0  0  0  0  0  0  0  0  0  0
   10.7106   49.1959  133.8442 C   0  0  0  0  0  0  0  0  0  0  0  0
    9.9535   51.4684  133.5726 C   0  0  0  0  0  0  0  0  0  0  0  0
    8.2134   46.3971  133.1176 C   0  0  0  0  0  0  0  0  0  0  0  0
   10.1758   44.8463  132.6776 N   0  0  0  0  0  0  0  0  0  0  0  0
    9.4759   45.6978  133.5418 C   0  0  0  0  0  0  0  0  0  0  0  0
    9.8746   45.8991  134.7024 O   0  0  0  0  0  0  0  0  0  0  0  0
    9.7669   44.7343  131.6927 H   0  0  0  0  0  0  0  0  0  0  0  0
   11.4140   44.1149  133.0162 C   0  0  0  0  0  0  0  0  0  0  0  0
   12.1138   43.8362  131.8025 C   0  0  0  0  0  0  0  0  0  0  0  0
   13.1616   43.0667  131.9262 O   0  0  0  0  0  0  0  0  0  0  0  0
   11.9054   44.2326  130.4720 N   0  0  0  0  0  0  0  0  0  0  0  0
   11.1056   44.8324  130.2060 H   0  0  0  0  0  0  0  0  0  0  0  0
   12.7881   43.8131  129.3524 C   0  0  0  0  0  0  0  0  0  0  0  0
   14.1278   44.4769  129.6256 C   0  0  0  0  0  0  0  0  0  0  0  0
   14.4270   45.3167  130.6964 N   0  0  0  0  0  0  0  0  0  0  0  0
   15.0996   44.2605  128.8112 O   0  0  0  0  0  0  0  0  0  0  0  0
   14.2645   46.3423  130.7178 H   0  0  0  0  0  0  0  0  0  0  0  0
   14.8595   44.9208  131.5841 H   0  0  0  0  0  0  0  0  0  0  0  0
   12.1945   44.2938  128.0793 C   0  0  0  0  0  0  0  0  0  0  0  0
   10.7457   44.4782  128.0517 C   0  0  0  0  0  0  0  0  0  0  0  0
   10.2494   45.7901  128.2035 O   0  0  0  0  0  0  0  0  0  0  0  0
    9.9033   43.5682  127.9032 O   0  0  0  0  0  0  0  0  0  0  0  0
    9.9074   46.1977  127.3236 H   0  0  0  0  0  0  0  0  0  0  0  0
   11.0719   43.0019  133.9700 C   0  0  0  0  0  0  0  0  0  0  0  0
   10.4345   41.6268  132.0912 C   0  0  0  0  0  0  0  0  0  0  0  0
   10.0990   41.9838  133.5603 C   0  0  0  0  0  0  0  0  0  0  0  0
    8.6694   42.4807  133.5514 C   0  0  0  0  0  0  0  0  0  0  0  0
    7.2439   45.4210  132.5319 C   0  0  0  0  0  0  0  0  0  0  0  0
    6.6844   45.7583  131.1916 C   0  0  0  0  0  0  0  0  0  0  0  0
    7.5776   45.2591  130.0939 C   0  0  0  0  0  0  0  0  0  0  0  0
    8.3363   44.0872  130.3195 N   0  0  0  0  0  0  0  0  0  0  0  0
    7.6401   45.8769  129.0056 O   0  0  0  0  0  0  0  0  0  0  0  0
    9.0650   44.0593  131.0515 H   0  0  0  0  0  0  0  0  0  0  0  0
    8.1474   43.2296  129.7235 H   0  0  0  0  0  0  0  0  0  0  0  0
 57 58  1  0  0  0
 58 59  1  0  0  0
 58 56  1  0  0  0
 56 40  1  0  0  0
 40 36  1  0  0  0
 36 37  1  0  0  0
 37 38  2  0  0  0
 37 35  1  0  0  0
 35 60  1  0  0  0
 60 61  1  0  0  0
 61 62  1  0  0  0
 62 63  1  0  0  0
 62 64  2  0  0  0
 35  1  1  0  0  0
  1  2  1  0  0  0
  2  3  2  0  0  0
  2  5  1  0  0  0
  5 31  1  0  0  0
 31 32  1  0  0  0
 32 33  1  0  0  0
 32 34  1  0  0  0
  5  6  1  0  0  0
  6  7  1  0  0  0
  7  8  2  0  0  0
  7 10  1  0  0  0
 10 11  1  0  0  0
 11 12  1  0  0  0
 12 13  2  0  0  0
 12 15  1  0  0  0
 15 16  1  0  0  0
 15 19  1  0  0  0
 19 20  1  0  0  0
 20 21  2  0  0  0
 21 22  1  0  0  0
 22 23  2  0  0  0
 23 24  1  0  0  0
 23 25  1  0  0  0
 25 26  2  0  0  0
 10 28  1  0  0  0
 28 29  1  0  0  0
 28 30  1  0  0  0
 40 41  1  0  0  0
 41 42  2  0  0  0
 41 43  1  0  0  0
 43 45  1  0  0  0
 45 51  1  0  0  0
 51 52  1  0  0  0
 52 53  1  0  0  0
 52 54  2  0  0  0
 45 46  1  0  0  0
 46 47  1  0  0  0
 46 48  2  0  0  0
 26 20  1  0  0  0
 36 39  1  0  0  0
 63 65  1  0  0  0
 63 66  1  0  0  0
  1  4  1  0  0  0
  6  9  1  0  0  0
 11 14  1  0  0  0
 16 17  1  0  0  0
 16 18  1  0  0  0
 24 27  1  0  0  0
 43 44  1  0  0  0
 53 55  1  0  0  0
 47 49  1  0  0  0
 47 50  1  0  0  0
M  END
> <minimizedAffinity>
4.35452

> <CNNscore>
0.3685432971

> <CNNaffinity>
7.6107292175

> <CNN_VS>
2.8048832417

> <CNNaffinity_variance>
0.4021342397

$$$$
[H]OC(=O)C([H])([H])[C@@]([H])(C(=O)N([H])[H])N([H])C(=O)[C@@]([H])(N([H])C(=O)[C@@]([H])(N([H])C(=O)[C@@]([H])(N([H])C(=O)[C@@]([H])(N([H])C(=O)[C@@]([H])(N([H])[H])C([H])([H])c1c([H])c([H])c(O[H])c([H])c1[H])C([H])(C([H])([H])[H])C([H])([H])[H])C([H])([H])C([H])(C([H])([H])[H])C([H])([H])[H])C([H])([H])C([H])([H])C(=O)N([H])[H])C([H])([H])C([H])(C([H])([H])[H])C([H])([H])[H]


 66 66  0  0  0  0  0  0  0  0999 V2000
   10.1123   47.4594  132.8578 N   0  0  0  0  0  0  0  0  0  0  0  0
    9.5105   48.5717  132.2377 C   0  0  0  0  0  0  0  0  0  0  0  0
    9.8551   49.7237  132.5516 O   0  0  0  0  0  0  0  0  0  0  0  0
    9.6166   46.5141  132.4683 H   0  0  0  0  0  0  0  0  0  0  0  0
    8.4630   48.3494  131.2068 C   0  0  0  0  0  0  0  0  0  0  0  0
    7.8355   49.4877  130.6683 N   0  0  0  0  0  0  0  0  0  0  0  0
    7.6140   50.0276  129.4095 C   0  0  0  0  0  0  0  0  0  0  0  0
    8.0057   49.5402  128.3510 O   0  0  0  0  0  0  0  0  0  0  0  0
    7.3755   50.1410  131.4840 H   0  0  0  0  0  0  0  0  0  0  0  0
    6.8204   51.3175  129.2733 C   0  0  0  0  0  0  0  0  0  0  0  0
    6.9285   51.9294  127.9982 N   0  0  0  0  0  0  0  0  0  0  0  0
    7.0792   53.3110  127.7250 C   0  0  0  0  0  0  0  0  0  0  0  0
    7.1679   54.1692  128.6444 O   0  0  0  0  0  0  0  0  0  0  0  0
    6.8963   51.3010  127.1214 H   0  0  0  0  0  0  0  0  0  0  0  0
    7.1254   53.7885  126.3357 C   0  0  0  0  0  0  0  0  0  0  0  0
    6.0824   54.7683  126.0656 N   0  0  0  0  0  0  0  0  0  0  0  0
    5.1631   54.2951  125.8326 H   0  0  0  0  0  0  0  0  0  0  0  0
    5.8610   55.3123  126.9456 H   0  0  0  0  0  0  0  0  0  0  0  0
    8.4946   54.3596  126.0322 C   0  0  0  0  0  0  0  0  0  0  0  0
    8.4812   54.8055  124.5938 C   0  0  0  0  0  0  0  0  0  0  0  0
    7.9172   53.9922  123.6294 C   0  0  0  0  0  0  0  0  0  0  0  0
    7.8434   54.3763  122.3072 C   0  0  0  0  0  0  0  0  0  0  0  0
    8.3389   55.6087  121.8930 C   0  0  0  0  0  0  0  0  0  0  0  0
    8.2564   55.9860  120.5599 O   0  0  0  0  0  0  0  0  0  0  0  0
    8.9065   56.4237  122.8645 C   0  0  0  0  0  0  0  0  0  0  0  0
    8.9701   56.0159  124.1928 C   0  0  0  0  0  0  0  0  0  0  0  0
    7.4131   56.4954  120.2594 H   0  0  0  0  0  0  0  0  0  0  0  0
    5.3687   51.0517  129.6145 C   0  0  0  0  0  0  0  0  0  0  0  0
    5.1225   51.0758  131.1011 C   0  0  0  0  0  0  0  0  0  0  0  0
    5.0571   49.6229  129.1647 C   0  0  0  0  0  0  0  0  0  0  0  0
    8.9029   47.4983  130.0688 C   0  0  0  0  0  0  0  0  0  0  0  0
    8.2220   46.2900  129.6480 C   0  0  0  0  0  0  0  0  0  0  0  0
    7.9416   45.1898  130.6113 C   0  0  0  0  0  0  0  0  0  0  0  0
    6.8926   46.5597  128.9278 C   0  0  0  0  0  0  0  0  0  0  0  0
   11.1234   47.1764  133.7967 C   0  0  0  0  0  0  0  0  0  0  0  0
   10.5378   44.7217  133.5110 N   0  0  0  0  0  0  0  0  0  0  0  0
   11.4952   45.7440  133.5266 C   0  0  0  0  0  0  0  0  0  0  0  0
   12.6971   45.4973  133.3238 O   0  0  0  0  0  0  0  0  0  0  0  0
    9.5240   45.0226  133.6882 H   0  0  0  0  0  0  0  0  0  0  0  0
   10.8180   43.2922  133.2648 C   0  0  0  0  0  0  0  0  0  0  0  0
   11.3626   43.1640  131.9505 C   0  0  0  0  0  0  0  0  0  0  0  0
   12.0564   42.0785  131.7371 O   0  0  0  0  0  0  0  0  0  0  0  0
   11.3087   43.9868  130.8143 N   0  0  0  0  0  0  0  0  0  0  0  0
   10.7830   44.8778  130.8170 H   0  0  0  0  0  0  0  0  0  0  0  0
   11.9722   43.6416  129.5301 C   0  0  0  0  0  0  0  0  0  0  0  0
   13.3338   44.3149  129.5869 C   0  0  0  0  0  0  0  0  0  0  0  0
   13.9204   44.8916  130.7115 N   0  0  0  0  0  0  0  0  0  0  0  0
   14.0380   44.3713  128.5120 O   0  0  0  0  0  0  0  0  0  0  0  0
   13.7690   45.8674  131.0331 H   0  0  0  0  0  0  0  0  0  0  0  0
   14.5855   44.3258  131.3193 H   0  0  0  0  0  0  0  0  0  0  0  0
   11.1491   44.1764  128.4162 C   0  0  0  0  0  0  0  0  0  0  0  0
    9.9049   43.4731  128.1149 C   0  0  0  0  0  0  0  0  0  0  0  0
    9.5504   42.3859  128.9413 O   0  0  0  0  0  0  0  0  0  0  0  0
    9.1223   43.7543  127.1831 O   0  0  0  0  0  0  0  0  0  0  0  0
    8.7889   42.6067  129.5960 H   0  0  0  0  0  0  0  0  0  0  0  0
    9.6129   42.4870  133.6709 C   0  0  0  0  0  0  0  0  0  0  0  0
    7.2946   41.8153  133.7015 C   0  0  0  0  0  0  0  0  0  0  0  0
    8.3192   42.7700  133.0407 C   0  0  0  0  0  0  0  0  0  0  0  0
    8.2851   42.4566  131.5603 C   0  0  0  0  0  0  0  0  0  0  0  0
   10.7906   47.3690  135.2416 C   0  0  0  0  0  0  0  0  0  0  0  0
    9.7425   46.4738  135.8103 C   0  0  0  0  0  0  0  0  0  0  0  0
    8.4190   46.7004  135.1401 C   0  0  0  0  0  0  0  0  0  0  0  0
    7.7686   47.9417  135.3296 N   0  0  0  0  0  0  0  0  0  0  0  0
    7.9126   45.8005  134.4304 O   0  0  0  0  0  0  0  0  0  0  0  0
    7.4490   48.2359  136.2672 H   0  0  0  0  0  0  0  0  0  0  0  0
    7.6110   48.5729  134.4912 H   0  0  0  0  0  0  0  0  0  0  0  0
 57 58  1  0  0  0
 58 59  1  0  0  0
 58 56  1  0  0  0
 56 40  1  0  0  0
 40 36  1  0  0  0
 36 37  1  0  0  0
 37 38  2  0  0  0
 37 35  1  0  0  0
 35 60  1  0  0  0
 60 61  1  0  0  0
 61 62  1  0  0  0
 62 63  1  0  0  0
 62 64  2  0  0  0
 35  1  1  0  0  0
  1  2  1  0  0  0
  2  3  2  0  0  0
  2  5  1  0  0  0
  5 31  1  0  0  0
 31 32  1  0  0  0
 32 33  1  0  0  0
 32 34  1  0  0  0
  5  6  1  0  0  0
  6  7  1  0  0  0
  7  8  2  0  0  0
  7 10  1  0  0  0
 10 11  1  0  0  0
 11 12  1  0  0  0
 12 13  2  0  0  0
 12 15  1  0  0  0
 15 16  1  0  0  0
 15 19  1  0  0  0
 19 20  1  0  0  0
 20 21  2  0  0  0
 21 22  1  0  0  0
 22 23  2  0  0  0
 23 24  1  0  0  0
 23 25  1  0  0  0
 25 26  2  0  0  0
 10 28  1  0  0  0
 28 29  1  0  0  0
 28 30  1  0  0  0
 40 41  1  0  0  0
 41 42  2  0  0  0
 41 43  1  0  0  0
 43 45  1  0  0  0
 45 51  1  0  0  0
 51 52  1  0  0  0
 52 53  1  0  0  0
 52 54  2  0  0  0
 45 46  1  0  0  0
 46 47  1  0  0  0
 46 48  2  0  0  0
 26 20  1  0  0  0
 36 39  1  0  0  0
 63 65  1  0  0  0
 63 66  1  0  0  0
  1  4  1  0  0  0
  6  9  1  0  0  0
 11 14  1  0  0  0
 16 17  1  0  0  0
 16 18  1  0  0  0
 24 27  1  0  0  0
 43 44  1  0  0  0
 53 55  1  0  0  0
 47 49  1  0  0  0
 47 50  1  0  0  0
M  END
> <minimizedAffinity>
1.20147

> <CNNscore>
0.3663865626

> <CNNaffinity>
7.8776350021

> <CNN_VS>
2.8862595558

> <CNNaffinity_variance>
0.7786040902

$$$$
[H]OC(=O)C([H])([H])[C@@]([H])(C(=O)N([H])[H])N([H])C(=O)[C@@]([H])(N([H])C(=O)[C@@]([H])(N([H])C(=O)[C@@]([H])(N([H])C(=O)[C@@]([H])(N([H])C(=O)[C@@]([H])(N([H])[H])C([H])([H])c1c([H])c([H])c(O[H])c([H])c1[H])C([H])(C([H])([H])[H])C([H])([H])[H])C([H])([H])C([H])(C([H])([H])[H])C([H])([H])[H])C([H])([H])C([H])([H])C(=O)N([H])[H])C([H])([H])C([H])(C([H])([H])[H])C([H])([H])[H]


 66 66  0  0  0  0  0  0  0  0999 V2000
    8.3845   45.3828  129.5795 N   0  0  0  0  0  0  0  0  0  0  0  0
    7.6771   46.4019  130.2464 C   0  0  0  0  0  0  0  0  0  0  0  0
    6.4958   46.2214  130.5873 O   0  0  0  0  0  0  0  0  0  0  0  0
    9.4180   45.7726  129.3129 H   0  0  0  0  0  0  0  0  0  0  0  0
    8.3602   47.6898  130.5360 C   0  0  0  0  0  0  0  0  0  0  0  0
    7.6889   48.8721  130.1740 N   0  0  0  0  0  0  0  0  0  0  0  0
    7.9835   50.0383  129.4823 C   0  0  0  0  0  0  0  0  0  0  0  0
    9.0754   50.3118  128.9879 O   0  0  0  0  0  0  0  0  0  0  0  0
    6.6068   48.8709  130.5384 H   0  0  0  0  0  0  0  0  0  0  0  0
    6.9020   51.0886  129.2835 C   0  0  0  0  0  0  0  0  0  0  0  0
    6.9789   51.7677  128.0406 N   0  0  0  0  0  0  0  0  0  0  0  0
    7.0793   53.1658  127.8372 C   0  0  0  0  0  0  0  0  0  0  0  0
    7.1451   53.9789  128.7987 O   0  0  0  0  0  0  0  0  0  0  0  0
    6.9618   51.1838  127.1332 H   0  0  0  0  0  0  0  0  0  0  0  0
    7.0981   53.7144  126.4738 C   0  0  0  0  0  0  0  0  0  0  0  0
    6.0362   54.6898  126.2686 N   0  0  0  0  0  0  0  0  0  0  0  0
    5.1211   54.2143  126.0241 H   0  0  0  0  0  0  0  0  0  0  0  0
    5.8191   55.1844  127.1783 H   0  0  0  0  0  0  0  0  0  0  0  0
    8.4537   54.3225  126.1816 C   0  0  0  0  0  0  0  0  0  0  0  0
    8.4492   54.7444  124.7359 C   0  0  0  0  0  0  0  0  0  0  0  0
    7.9597   53.8833  123.7722 C   0  0  0  0  0  0  0  0  0  0  0  0
    7.8958   54.2417  122.4423 C   0  0  0  0  0  0  0  0  0  0  0  0
    8.3258   55.4955  122.0192 C   0  0  0  0  0  0  0  0  0  0  0  0
    8.2537   55.8464  120.6783 O   0  0  0  0  0  0  0  0  0  0  0  0
    8.8185   56.3586  122.9900 C   0  0  0  0  0  0  0  0  0  0  0  0
    8.8735   55.9761  124.3262 C   0  0  0  0  0  0  0  0  0  0  0  0
    7.3888   56.2985  120.3491 H   0  0  0  0  0  0  0  0  0  0  0  0
    5.5411   50.4458  129.4554 C   0  0  0  0  0  0  0  0  0  0  0  0
    5.1572   50.3113  130.9064 C   0  0  0  0  0  0  0  0  0  0  0  0
    5.6498   49.0167  128.9200 C   0  0  0  0  0  0  0  0  0  0  0  0
    8.8014   47.8382  131.9488 C   0  0  0  0  0  0  0  0  0  0  0  0
    9.8739   48.7141  132.3769 C   0  0  0  0  0  0  0  0  0  0  0  0
    9.6215   50.1515  132.6723 C   0  0  0  0  0  0  0  0  0  0  0  0
   10.6565   48.1738  133.5828 C   0  0  0  0  0  0  0  0  0  0  0  0
    8.1963   44.0534  129.1537 C   0  0  0  0  0  0  0  0  0  0  0  0
   10.3126   43.7009  130.5128 N   0  0  0  0  0  0  0  0  0  0  0  0
    9.0657   43.2391  130.0725 C   0  0  0  0  0  0  0  0  0  0  0  0
    8.6358   42.1262  130.4234 O   0  0  0  0  0  0  0  0  0  0  0  0
   10.6034   44.6738  130.1685 H   0  0  0  0  0  0  0  0  0  0  0  0
   11.2307   42.9631  131.4046 C   0  0  0  0  0  0  0  0  0  0  0  0
   11.0165   43.4187  132.7414 C   0  0  0  0  0  0  0  0  0  0  0  0
   10.6452   42.4997  133.5917 O   0  0  0  0  0  0  0  0  0  0  0  0
   11.1206   44.6825  133.3436 N   0  0  0  0  0  0  0  0  0  0  0  0
   11.4199   45.5141  132.8059 H   0  0  0  0  0  0  0  0  0  0  0  0
   10.8358   44.9219  134.7824 C   0  0  0  0  0  0  0  0  0  0  0  0
   11.7493   43.9702  135.5373 C   0  0  0  0  0  0  0  0  0  0  0  0
   11.3800   43.1381  136.5921 N   0  0  0  0  0  0  0  0  0  0  0  0
   12.9864   43.9004  135.1918 O   0  0  0  0  0  0  0  0  0  0  0  0
   11.3540   43.4141  137.5930 H   0  0  0  0  0  0  0  0  0  0  0  0
   11.0958   42.1299  136.4058 H   0  0  0  0  0  0  0  0  0  0  0  0
    9.4053   44.6161  135.0365 C   0  0  0  0  0  0  0  0  0  0  0  0
    8.4230   45.2956  134.1957 C   0  0  0  0  0  0  0  0  0  0  0  0
    7.8930   46.5165  134.6638 O   0  0  0  0  0  0  0  0  0  0  0  0
    8.0103   44.8865  133.0903 O   0  0  0  0  0  0  0  0  0  0  0  0
    8.2737   47.3369  134.1746 H   0  0  0  0  0  0  0  0  0  0  0  0
   12.6107   42.9879  130.8043 C   0  0  0  0  0  0  0  0  0  0  0  0
   12.3407   45.3815  130.9610 C   0  0  0  0  0  0  0  0  0  0  0  0
   13.3766   44.2384  130.8255 C   0  0  0  0  0  0  0  0  0  0  0  0
   14.1294   44.5096  129.5408 C   0  0  0  0  0  0  0  0  0  0  0  0
    8.5054   43.7410  127.7245 C   0  0  0  0  0  0  0  0  0  0  0  0
    9.3890   44.7040  127.0067 C   0  0  0  0  0  0  0  0  0  0  0  0
   10.7203   44.8248  127.6886 C   0  0  0  0  0  0  0  0  0  0  0  0
   11.6151   43.7315  127.6239 N   0  0  0  0  0  0  0  0  0  0  0  0
   11.0201   45.8775  128.2984 O   0  0  0  0  0  0  0  0  0  0  0  0
   11.3742   42.8224  128.0518 H   0  0  0  0  0  0  0  0  0  0  0  0
   12.5445   43.8563  127.1270 H   0  0  0  0  0  0  0  0  0  0  0  0
 57 58  1  0  0  0
 58 59  1  0  0  0
 58 56  1  0  0  0
 56 40  1  0  0  0
 40 36  1  0  0  0
 36 37  1  0  0  0
 37 38  2  0  0  0
 37 35  1  0  0  0
 35 60  1  0  0  0
 60 61  1  0  0  0
 61 62  1  0  0  0
 62 63  1  0  0  0
 62 64  2  0  0  0
 35  1  1  0  0  0
  1  2  1  0  0  0
  2  3  2  0  0  0
  2  5  1  0  0  0
  5 31  1  0  0  0
 31 32  1  0  0  0
 32 33  1  0  0  0
 32 34  1  0  0  0
  5  6  1  0  0  0
  6  7  1  0  0  0
  7  8  2  0  0  0
  7 10  1  0  0  0
 10 11  1  0  0  0
 11 12  1  0  0  0
 12 13  2  0  0  0
 12 15  1  0  0  0
 15 16  1  0  0  0
 15 19  1  0  0  0
 19 20  1  0  0  0
 20 21  2  0  0  0
 21 22  1  0  0  0
 22 23  2  0  0  0
 23 24  1  0  0  0
 23 25  1  0  0  0
 25 26  2  0  0  0
 10 28  1  0  0  0
 28 29  1  0  0  0
 28 30  1  0  0  0
 40 41  1  0  0  0
 41 42  2  0  0  0
 41 43  1  0  0  0
 43 45  1  0  0  0
 45 51  1  0  0  0
 51 52  1  0  0  0
 52 53  1  0  0  0
 52 54  2  0  0  0
 45 46  1  0  0  0
 46 47  1  0  0  0
 46 48  2  0  0  0
 26 20  1  0  0  0
 36 39  1  0  0  0
 63 65  1  0  0  0
 63 66  1  0  0  0
  1  4  1  0  0  0
  6  9  1  0  0  0
 11 14  1  0  0  0
 16 17  1  0  0  0
 16 18  1  0  0  0
 24 27  1  0  0  0
 43 44  1  0  0  0
 53 55  1  0  0  0
 47 49  1  0  0  0
 47 50  1  0  0  0
M  END
> <minimizedAffinity>
2.83326

> <CNNscore>
0.3404416740

> <CNNaffinity>
7.6705932617

> <CNN_VS>
2.6113896370

> <CNNaffinity_variance>
0.2841279805

$$$$
[H]OC(=O)C([H])([H])[C@@]([H])(C(=O)N([H])[H])N([H])C(=O)[C@@]([H])(N([H])C(=O)[C@@]([H])(N([H])C(=O)[C@@]([H])(N([H])C(=O)[C@@]([H])(N([H])C(=O)[C@@]([H])(N([H])[H])C([H])([H])c1c([H])c([H])c(O[H])c([H])c1[H])C([H])(C([H])([H])[H])C([H])([H])[H])C([H])([H])C([H])(C([H])([H])[H])C([H])([H])[H])C([H])([H])C([H])([H])C(=O)N([H])[H])C([H])([H])C([H])(C([H])([H])[H])C([H])([H])[H]


 66 66  0  0  0  0  0  0  0  0999 V2000
    8.2349   44.7009  131.2480 N   0  0  0  0  0  0  0  0  0  0  0  0
    8.2938   44.4727  129.8593 C   0  0  0  0  0  0  0  0  0  0  0  0
    8.3399   43.3115  129.4190 O   0  0  0  0  0  0  0  0  0  0  0  0
    8.2555   45.8218  131.4330 H   0  0  0  0  0  0  0  0  0  0  0  0
    8.2992   45.6346  128.9323 C   0  0  0  0  0  0  0  0  0  0  0  0
    7.4531   46.7141  129.2456 N   0  0  0  0  0  0  0  0  0  0  0  0
    7.4973   48.0985  129.1632 C   0  0  0  0  0  0  0  0  0  0  0  0
    8.4514   48.7531  128.7480 O   0  0  0  0  0  0  0  0  0  0  0  0
    6.4569   46.3581  129.6753 H   0  0  0  0  0  0  0  0  0  0  0  0
    6.2919   48.9168  129.5989 C   0  0  0  0  0  0  0  0  0  0  0  0
    6.4018   50.3020  129.3145 N   0  0  0  0  0  0  0  0  0  0  0  0
    6.8279   50.8922  128.0995 C   0  0  0  0  0  0  0  0  0  0  0  0
    7.1360   50.2004  127.0914 O   0  0  0  0  0  0  0  0  0  0  0  0
    6.1392   51.0085  130.0869 H   0  0  0  0  0  0  0  0  0  0  0  0
    6.9343   52.3537  127.9856 C   0  0  0  0  0  0  0  0  0  0  0  0
    7.2297   52.9760  129.2688 N   0  0  0  0  0  0  0  0  0  0  0  0
    6.3465   53.1224  129.8361 H   0  0  0  0  0  0  0  0  0  0  0  0
    7.7986   52.3156  129.8683 H   0  0  0  0  0  0  0  0  0  0  0  0
    7.9837   52.7154  126.9557 C   0  0  0  0  0  0  0  0  0  0  0  0
    7.6167   54.0674  126.4032 C   0  0  0  0  0  0  0  0  0  0  0  0
    8.4192   54.6571  125.4450 C   0  0  0  0  0  0  0  0  0  0  0  0
    8.1012   55.8736  124.8790 C   0  0  0  0  0  0  0  0  0  0  0  0
    6.9495   56.5572  125.2561 C   0  0  0  0  0  0  0  0  0  0  0  0
    6.6380   57.7796  124.6774 O   0  0  0  0  0  0  0  0  0  0  0  0
    6.1453   55.9627  126.2205 C   0  0  0  0  0  0  0  0  0  0  0  0
    6.4855   54.7345  126.7778 C   0  0  0  0  0  0  0  0  0  0  0  0
    6.0625   57.7704  123.8232 H   0  0  0  0  0  0  0  0  0  0  0  0
    5.0406   48.3416  128.9678 C   0  0  0  0  0  0  0  0  0  0  0  0
    3.8438   49.2357  129.1658 C   0  0  0  0  0  0  0  0  0  0  0  0
    4.7185   47.0448  129.7131 C   0  0  0  0  0  0  0  0  0  0  0  0
    9.6530   46.1885  128.6619 C   0  0  0  0  0  0  0  0  0  0  0  0
   10.8463   45.3795  128.5122 C   0  0  0  0  0  0  0  0  0  0  0  0
   11.5626   44.8383  129.7001 C   0  0  0  0  0  0  0  0  0  0  0  0
   10.6584   44.1875  127.5622 C   0  0  0  0  0  0  0  0  0  0  0  0
    8.1599   43.9693  132.4492 C   0  0  0  0  0  0  0  0  0  0  0  0
   10.0970   45.3834  133.2845 N   0  0  0  0  0  0  0  0  0  0  0  0
    8.8114   44.8599  133.4716 C   0  0  0  0  0  0  0  0  0  0  0  0
    8.1632   45.1100  134.5030 O   0  0  0  0  0  0  0  0  0  0  0  0
   10.5823   45.1239  132.3643 H   0  0  0  0  0  0  0  0  0  0  0  0
   10.8120   46.2549  134.2395 C   0  0  0  0  0  0  0  0  0  0  0  0
   10.4872   47.6121  133.9347 C   0  0  0  0  0  0  0  0  0  0  0  0
   11.3372   48.5015  134.3727 O   0  0  0  0  0  0  0  0  0  0  0  0
    9.4137   48.2021  133.2490 N   0  0  0  0  0  0  0  0  0  0  0  0
    8.6623   47.6297  132.8269 H   0  0  0  0  0  0  0  0  0  0  0  0
    9.2816   49.6698  133.0571 C   0  0  0  0  0  0  0  0  0  0  0  0
    9.3910   49.8911  131.5573 C   0  0  0  0  0  0  0  0  0  0  0  0
   10.2726   49.2460  130.6924 N   0  0  0  0  0  0  0  0  0  0  0  0
    8.6069   50.7465  131.0024 O   0  0  0  0  0  0  0  0  0  0  0  0
   11.2469   49.5467  130.4951 H   0  0  0  0  0  0  0  0  0  0  0  0
    9.9667   48.3721  130.1683 H   0  0  0  0  0  0  0  0  0  0  0  0
   10.3869   50.3414  133.7862 C   0  0  0  0  0  0  0  0  0  0  0  0
   10.3161   51.7956  133.9033 C   0  0  0  0  0  0  0  0  0  0  0  0
    9.1639   52.4377  133.4025 O   0  0  0  0  0  0  0  0  0  0  0  0
   11.1932   52.5240  134.4131 O   0  0  0  0  0  0  0  0  0  0  0  0
    8.5244   52.7561  134.1421 H   0  0  0  0  0  0  0  0  0  0  0  0
   12.2495   45.8144  134.3121 C   0  0  0  0  0  0  0  0  0  0  0  0
   12.6158   43.7613  133.0966 C   0  0  0  0  0  0  0  0  0  0  0  0
   12.5519   44.3929  134.5091 C   0  0  0  0  0  0  0  0  0  0  0  0
   11.4694   43.6406  135.2526 C   0  0  0  0  0  0  0  0  0  0  0  0
    8.7825   42.6100  132.4640 C   0  0  0  0  0  0  0  0  0  0  0  0
   10.2651   42.5532  132.3157 C   0  0  0  0  0  0  0  0  0  0  0  0
   10.6704   41.4615  131.3691 C   0  0  0  0  0  0  0  0  0  0  0  0
   10.3267   41.5884  130.0033 N   0  0  0  0  0  0  0  0  0  0  0  0
   11.2997   40.4644  131.7932 O   0  0  0  0  0  0  0  0  0  0  0  0
    9.3378   41.6076  129.7043 H   0  0  0  0  0  0  0  0  0  0  0  0
   11.1021   41.6642  129.2827 H   0  0  0  0  0  0  0  0  0  0  0  0
 57 58  1  0  0  0
 58 59  1  0  0  0
 58 56  1  0  0  0
 56 40  1  0  0  0
 40 36  1  0  0  0
 36 37  1  0  0  0
 37 38  2  0  0  0
 37 35  1  0  0  0
 35 60  1  0  0  0
 60 61  1  0  0  0
 61 62  1  0  0  0
 62 63  1  0  0  0
 62 64  2  0  0  0
 35  1  1  0  0  0
  1  2  1  0  0  0
  2  3  2  0  0  0
  2  5  1  0  0  0
  5 31  1  0  0  0
 31 32  1  0  0  0
 32 33  1  0  0  0
 32 34  1  0  0  0
  5  6  1  0  0  0
  6  7  1  0  0  0
  7  8  2  0  0  0
  7 10  1  0  0  0
 10 11  1  0  0  0
 11 12  1  0  0  0
 12 13  2  0  0  0
 12 15  1  0  0  0
 15 16  1  0  0  0
 15 19  1  0  0  0
 19 20  1  0  0  0
 20 21  2  0  0  0
 21 22  1  0  0  0
 22 23  2  0  0  0
 23 24  1  0  0  0
 23 25  1  0  0  0
 25 26  2  0  0  0
 10 28  1  0  0  0
 28 29  1  0  0  0
 28 30  1  0  0  0
 40 41  1  0  0  0
 41 42  2  0  0  0
 41 43  1  0  0  0
 43 45  1  0  0  0
 45 51  1  0  0  0
 51 52  1  0  0  0
 52 53  1  0  0  0
 52 54  2  0  0  0
 45 46  1  0  0  0
 46 47  1  0  0  0
 46 48  2  0  0  0
 26 20  1  0  0  0
 36 39  1  0  0  0
 63 65  1  0  0  0
 63 66  1  0  0  0
  1  4  1  0  0  0
  6  9  1  0  0  0
 11 14  1  0  0  0
 16 17  1  0  0  0
 16 18  1  0  0  0
 24 27  1  0  0  0
 43 44  1  0  0  0
 53 55  1  0  0  0
 47 49  1  0  0  0
 47 50  1  0  0  0
M  END
> <minimizedAffinity>
8.91666

> <CNNscore>
0.3389403522

> <CNNaffinity>
7.5616135597

> <CNN_VS>
2.5629360676

> <CNNaffinity_variance>
0.3618985713

$$$$
[H]OC(=O)C([H])([H])[C@@]([H])(C(=O)N([H])[H])N([H])C(=O)[C@@]([H])(N([H])C(=O)[C@@]([H])(N([H])C(=O)[C@@]([H])(N([H])C(=O)[C@@]([H])(N([H])C(=O)[C@@]([H])(N([H])[H])C([H])([H])c1c([H])c([H])c(O[H])c([H])c1[H])C([H])(C([H])([H])[H])C([H])([H])[H])C([H])([H])C([H])(C([H])([H])[H])C([H])([H])[H])C([H])([H])C([H])([H])C(=O)N([H])[H])C([H])([H])C([H])(C([H])([H])[H])C([H])([H])[H]


 66 66  0  0  0  0  0  0  0  0999 V2000
    7.8967   50.2390  129.1148 N   0  0  0  0  0  0  0  0  0  0  0  0
    8.4224   49.8390  130.3588 C   0  0  0  0  0  0  0  0  0  0  0  0
    7.7496   49.9776  131.3944 O   0  0  0  0  0  0  0  0  0  0  0  0
    8.6891   50.0770  128.3166 H   0  0  0  0  0  0  0  0  0  0  0  0
    9.7863   49.2507  130.4152 C   0  0  0  0  0  0  0  0  0  0  0  0
   10.0467   48.3219  131.4394 N   0  0  0  0  0  0  0  0  0  0  0  0
   10.3816   48.3590  132.7854 C   0  0  0  0  0  0  0  0  0  0  0  0
   10.5617   49.3823  133.4424 O   0  0  0  0  0  0  0  0  0  0  0  0
    9.9476   47.2465  131.0685 H   0  0  0  0  0  0  0  0  0  0  0  0
   10.5401   47.0584  133.5572 C   0  0  0  0  0  0  0  0  0  0  0  0
    9.6491   46.0331  133.1488 N   0  0  0  0  0  0  0  0  0  0  0  0
    8.7704   45.2882  133.9731 C   0  0  0  0  0  0  0  0  0  0  0  0
    8.6715   45.5029  135.2116 O   0  0  0  0  0  0  0  0  0  0  0  0
    9.6131   45.7688  132.1031 H   0  0  0  0  0  0  0  0  0  0  0  0
    7.9446   44.2184  133.3953 C   0  0  0  0  0  0  0  0  0  0  0  0
    7.3203   44.6318  132.1462 N   0  0  0  0  0  0  0  0  0  0  0  0
    6.4268   45.1731  132.3251 H   0  0  0  0  0  0  0  0  0  0  0  0
    7.9362   45.3341  131.6495 H   0  0  0  0  0  0  0  0  0  0  0  0
    8.7818   42.9727  133.1943 C   0  0  0  0  0  0  0  0  0  0  0  0
    9.2955   43.0062  131.7791 C   0  0  0  0  0  0  0  0  0  0  0  0
    8.4128   42.8595  130.7259 C   0  0  0  0  0  0  0  0  0  0  0  0
    8.8299   42.9259  129.4133 C   0  0  0  0  0  0  0  0  0  0  0  0
   10.1675   43.1453  129.0995 C   0  0  0  0  0  0  0  0  0  0  0  0
   10.5753   43.2133  127.7746 O   0  0  0  0  0  0  0  0  0  0  0  0
   11.0529   43.2911  130.1602 C   0  0  0  0  0  0  0  0  0  0  0  0
   10.6098   43.2208  131.4769 C   0  0  0  0  0  0  0  0  0  0  0  0
   10.5669   44.1373  127.3195 H   0  0  0  0  0  0  0  0  0  0  0  0
   11.9761   46.5869  133.4559 C   0  0  0  0  0  0  0  0  0  0  0  0
   12.3246   46.1269  132.0638 C   0  0  0  0  0  0  0  0  0  0  0  0
   12.1055   45.3500  134.3470 C   0  0  0  0  0  0  0  0  0  0  0  0
   10.2393   48.6456  129.1341 C   0  0  0  0  0  0  0  0  0  0  0  0
    9.9267   47.2922  128.7200 C   0  0  0  0  0  0  0  0  0  0  0  0
   11.0032   46.2880  128.4974 C   0  0  0  0  0  0  0  0  0  0  0  0
    8.8955   46.6017  129.6246 C   0  0  0  0  0  0  0  0  0  0  0  0
    6.7074   50.7686  128.5775 C   0  0  0  0  0  0  0  0  0  0  0  0
    7.2664   52.7164  127.0467 N   0  0  0  0  0  0  0  0  0  0  0  0
    7.0203   52.2196  128.3329 C   0  0  0  0  0  0  0  0  0  0  0  0
    7.0608   52.9674  129.3257 O   0  0  0  0  0  0  0  0  0  0  0  0
    7.2041   52.0052  126.2467 H   0  0  0  0  0  0  0  0  0  0  0  0
    7.5898   54.1206  126.7205 C   0  0  0  0  0  0  0  0  0  0  0  0
    6.3635   54.8336  126.5523 C   0  0  0  0  0  0  0  0  0  0  0  0
    6.2670   55.9460  127.2295 O   0  0  0  0  0  0  0  0  0  0  0  0
    5.2101   54.5765  125.7944 N   0  0  0  0  0  0  0  0  0  0  0  0
    5.1363   53.7401  125.1899 H   0  0  0  0  0  0  0  0  0  0  0  0
    4.0298   55.4793  125.7810 C   0  0  0  0  0  0  0  0  0  0  0  0
    2.8325   54.5730  125.5455 C   0  0  0  0  0  0  0  0  0  0  0  0
    2.6276   53.7508  124.4395 N   0  0  0  0  0  0  0  0  0  0  0  0
    1.9039   54.5363  126.4348 O   0  0  0  0  0  0  0  0  0  0  0  0
    2.1881   54.0460  123.5460 H   0  0  0  0  0  0  0  0  0  0  0  0
    2.9276   52.7305  124.4667 H   0  0  0  0  0  0  0  0  0  0  0  0
    4.1964   56.4557  124.6750 C   0  0  0  0  0  0  0  0  0  0  0  0
    4.4239   57.8490  125.0498 C   0  0  0  0  0  0  0  0  0  0  0  0
    5.7599   58.2946  125.1349 O   0  0  0  0  0  0  0  0  0  0  0  0
    3.5314   58.6854  125.3020 O   0  0  0  0  0  0  0  0  0  0  0  0
    6.0394   58.8888  124.3436 H   0  0  0  0  0  0  0  0  0  0  0  0
    8.6339   54.1364  125.6365 C   0  0  0  0  0  0  0  0  0  0  0  0
    8.0835   53.5210  123.3682 C   0  0  0  0  0  0  0  0  0  0  0  0
    8.2994   54.7146  124.3309 C   0  0  0  0  0  0  0  0  0  0  0  0
    9.4175   55.5378  123.7285 C   0  0  0  0  0  0  0  0  0  0  0  0
    5.4640   50.6304  129.3964 C   0  0  0  0  0  0  0  0  0  0  0  0
    4.6545   49.3973  129.1782 C   0  0  0  0  0  0  0  0  0  0  0  0
    5.5369   48.2165  128.8971 C   0  0  0  0  0  0  0  0  0  0  0  0
    5.4589   47.0946  129.7546 N   0  0  0  0  0  0  0  0  0  0  0  0
    6.3211   48.2372  127.9201 O   0  0  0  0  0  0  0  0  0  0  0  0
    5.7195   47.1695  130.7516 H   0  0  0  0  0  0  0  0  0  0  0  0
    5.1273   46.1672  129.3592 H   0  0  0  0  0  0  0  0  0  0  0  0
 57 58  1  0  0  0
 58 59  1  0  0  0
 58 56  1  0  0  0
 56 40  1  0  0  0
 40 36  1  0  0  0
 36 37  1  0  0  0
 37 38  2  0  0  0
 37 35  1  0  0  0
 35 60  1  0  0  0
 60 61  1  0  0  0
 61 62  1  0  0  0
 62 63  1  0  0  0
 62 64  2  0  0  0
 35  1  1  0  0  0
  1  2  1  0  0  0
  2  3  2  0  0  0
  2  5  1  0  0  0
  5 31  1  0  0  0
 31 32  1  0  0  0
 32 33  1  0  0  0
 32 34  1  0  0  0
  5  6  1  0  0  0
  6  7  1  0  0  0
  7  8  2  0  0  0
  7 10  1  0  0  0
 10 11  1  0  0  0
 11 12  1  0  0  0
 12 13  2  0  0  0
 12 15  1  0  0  0
 15 16  1  0  0  0
 15 19  1  0  0  0
 19 20  1  0  0  0
 20 21  2  0  0  0
 21 22  1  0  0  0
 22 23  2  0  0  0
 23 24  1  0  0  0
 23 25  1  0  0  0
 25 26  2  0  0  0
 10 28  1  0  0  0
 28 29  1  0  0  0
 28 30  1  0  0  0
 40 41  1  0  0  0
 41 42  2  0  0  0
 41 43  1  0  0  0
 43 45  1  0  0  0
 45 51  1  0  0  0
 51 52  1  0  0  0
 52 53  1  0  0  0
 52 54  2  0  0  0
 45 46  1  0  0  0
 46 47  1  0  0  0
 46 48  2  0  0  0
 26 20  1  0  0  0
 36 39  1  0  0  0
 63 65  1  0  0  0
 63 66  1  0  0  0
  1  4  1  0  0  0
  6  9  1  0  0  0
 11 14  1  0  0  0
 16 17  1  0  0  0
 16 18  1  0  0  0
 24 27  1  0  0  0
 43 44  1  0  0  0
 53 55  1  0  0  0
 47 49  1  0  0  0
 47 50  1  0  0  0
M  END
> <minimizedAffinity>
-1.69765

> <CNNscore>
0.3172149658

> <CNNaffinity>
7.7724390030

> <CNN_VS>
2.4655339718

> <CNNaffinity_variance>
0.3330247998

$$$$
[H]c1nc(N([H])c2c([H])c([H])c(N3C([H])([H])C([H])([H])C([H])(N4C([H])([H])C([H])([H])N(C([H])([H])[H])C([H])([H])C4([H])[H])C([H])([H])C3([H])[H])c([H])c2OC([H])([H])[H])nc(N([H])c2c([H])c([H])c([H])c([H])c2S(=O)(=O)C([H])(C([H])([H])[H])C([H])([H])[H])c1Cl


 44 48  0  0  0  0  0  0  0  0999 V2000
    7.7956   47.3495  130.4944 N   0  0  0  0  0  0  0  0  0  0  0  0
    7.2847   47.2556  131.4438 H   0  0  0  0  0  0  0  0  0  0  0  0
    8.4438   46.1806  130.0148 C   0  0  0  0  0  0  0  0  0  0  0  0
    9.3931   46.1335  129.0768 N   0  0  0  0  0  0  0  0  0  0  0  0
    9.9651   44.9930  128.6711 C   0  0  0  0  0  0  0  0  0  0  0  0
    9.5781   43.7966  129.2280 C   0  0  0  0  0  0  0  0  0  0  0  0
   10.3193   42.2867  128.7071 Cl  0  0  0  0  0  0  0  0  0  0  0  0
    8.5770   43.8190  130.2210 C   0  0  0  0  0  0  0  0  0  0  0  0
    8.0684   45.0062  130.5569 N   0  0  0  0  0  0  0  0  0  0  0  0
    8.2017   42.5851  130.7744 N   0  0  0  0  0  0  0  0  0  0  0  0
    8.0978   41.7920  130.0594 H   0  0  0  0  0  0  0  0  0  0  0  0
    7.9372   42.1991  132.0971 C   0  0  0  0  0  0  0  0  0  0  0  0
    6.7629   41.5444  132.4031 C   0  0  0  0  0  0  0  0  0  0  0  0
    6.4833   41.1540  133.7190 C   0  0  0  0  0  0  0  0  0  0  0  0
    7.3897   41.4303  134.6982 C   0  0  0  0  0  0  0  0  0  0  0  0
    8.5612   42.0839  134.3896 C   0  0  0  0  0  0  0  0  0  0  0  0
    8.8603   42.4769  133.1113 C   0  0  0  0  0  0  0  0  0  0  0  0
   10.3247   43.2893  132.7432 S   0  0  0  0  0  0  0  0  0  0  0  0
   10.0261   44.6572  132.1829 O   0  0  0  0  0  0  0  0  0  0  0  0
   11.2102   42.5736  131.7618 O   0  0  0  0  0  0  0  0  0  0  0  0
   11.3326   43.5691  134.1869 C   0  0  0  0  0  0  0  0  0  0  0  0
   12.7671   43.7461  133.8081 C   0  0  0  0  0  0  0  0  0  0  0  0
   10.7800   44.6069  135.1059 C   0  0  0  0  0  0  0  0  0  0  0  0
    6.5310   48.9645  129.2436 C   0  0  0  0  0  0  0  0  0  0  0  0
    6.3791   50.1961  128.6334 C   0  0  0  0  0  0  0  0  0  0  0  0
    7.3826   51.1390  128.6403 C   0  0  0  0  0  0  0  0  0  0  0  0
    8.5425   50.7879  129.2873 C   0  0  0  0  0  0  0  0  0  0  0  0
    8.7292   49.5518  129.9139 C   0  0  0  0  0  0  0  0  0  0  0  0
    7.7255   48.6161  129.9036 C   0  0  0  0  0  0  0  0  0  0  0  0
    7.2079   52.4115  128.0112 N   0  0  0  0  0  0  0  0  0  0  0  0
    7.2103   53.5761  128.8285 C   0  0  0  0  0  0  0  0  0  0  0  0
    7.3783   54.8851  128.1094 C   0  0  0  0  0  0  0  0  0  0  0  0
    6.5895   55.0021  126.8488 C   0  0  0  0  0  0  0  0  0  0  0  0
    6.0803   53.6672  126.3428 C   0  0  0  0  0  0  0  0  0  0  0  0
    7.0258   52.5401  126.5852 C   0  0  0  0  0  0  0  0  0  0  0  0
    7.1728   55.7080  125.7787 N   0  0  0  0  0  0  0  0  0  0  0  0
    8.5347   55.5277  125.4924 C   0  0  0  0  0  0  0  0  0  0  0  0
    9.0199   56.6537  124.5751 C   0  0  0  0  0  0  0  0  0  0  0  0
    8.0246   56.8378  123.5368 N   0  0  0  0  0  0  0  0  0  0  0  0
    7.9715   55.7784  122.5807 C   0  0  0  0  0  0  0  0  0  0  0  0
    6.7641   57.2848  124.0351 C   0  0  0  0  0  0  0  0  0  0  0  0
    6.7088   57.0373  125.5412 C   0  0  0  0  0  0  0  0  0  0  0  0
    5.5462   46.9827  128.2947 C   0  0  0  0  0  0  0  0  0  0  0  0
    5.4798   48.0619  129.1986 O   0  0  0  0  0  0  0  0  0  0  0  0
 43 44  1  0  0  0
 44 24  1  0  0  0
 24 25  2  0  0  0
 25 26  1  0  0  0
 26 27  2  0  0  0
 27 28  1  0  0  0
 28 29  2  0  0  0
 29  1  1  0  0  0
  1  3  1  0  0  0
  3  4  2  0  0  0
  4  5  1  0  0  0
  5  6  2  0  0  0
  6  7  1  0  0  0
  6  8  1  0  0  0
  8 10  1  0  0  0
 10 12  1  0  0  0
 12 13  2  0  0  0
 13 14  1  0  0  0
 14 15  2  0  0  0
 15 16  1  0  0  0
 16 17  2  0  0  0
 17 18  1  0  0  0
 18 19  2  0  0  0
 18 20  2  0  0  0
 18 21  1  0  0  0
 21 22  1  0  0  0
 21 23  1  0  0  0
  8  9  2  0  0  0
 26 30  1  0  0  0
 30 31  1  0  0  0
 31 32  1  0  0  0
 32 33  1  0  0  0
 33 34  1  0  0  0
 34 35  1  0  0  0
 33 36  1  0  0  0
 36 37  1  0  0  0
 37 38  1  0  0  0
 38 39  1  0  0  0
 39 40  1  0  0  0
 39 41  1  0  0  0
 41 42  1  0  0  0
 29 24  1  0  0  0
  9  3  1  0  0  0
 35 30  1  0  0  0
 42 36  1  0  0  0
 17 12  1  0  0  0
  1  2  1  0  0  0
 10 11  1  0  0  0
M  END
> <minimizedAffinity>
16.89710

> <CNNscore>
0.4267839491

> <CNNaffinity>
7.7519226074

> <CNN_VS>
3.3083961010

> <CNNaffinity_variance>
0.6865400672

$$$$
[H]c1nc(N([H])c2c([H])c([H])c(N3C([H])([H])C([H])([H])C([H])(N4C([H])([H])C([H])([H])N(C([H])([H])[H])C([H])([H])C4([H])[H])C([H])([H])C3([H])[H])c([H])c2OC([H])([H])[H])nc(N([H])c2c([H])c([H])c([H])c([H])c2S(=O)(=O)C([H])(C([H])([H])[H])C([H])([H])[H])c1Cl


 44 48  0  0  0  0  0  0  0  0999 V2000
    6.4669   51.9478  128.4537 N   0  0  0  0  0  0  0  0  0  0  0  0
    5.4164   51.7263  128.3170 H   0  0  0  0  0  0  0  0  0  0  0  0
    6.9562   53.0984  127.7806 C   0  0  0  0  0  0  0  0  0  0  0  0
    8.0914   53.7476  128.0511 N   0  0  0  0  0  0  0  0  0  0  0  0
    8.4952   54.8294  127.3734 C   0  0  0  0  0  0  0  0  0  0  0  0
    7.7260   55.3195  126.3441 C   0  0  0  0  0  0  0  0  0  0  0  0
    8.2412   56.7410  125.4416 Cl  0  0  0  0  0  0  0  0  0  0  0  0
    6.5221   54.6519  126.0382 C   0  0  0  0  0  0  0  0  0  0  0  0
    6.2067   53.5825  126.7716 N   0  0  0  0  0  0  0  0  0  0  0  0
    5.7569   55.1710  124.9825 N   0  0  0  0  0  0  0  0  0  0  0  0
    5.7084   56.2424  124.9554 H   0  0  0  0  0  0  0  0  0  0  0  0
    5.0419   54.5413  123.9526 C   0  0  0  0  0  0  0  0  0  0  0  0
    5.6800   54.1986  122.7793 C   0  0  0  0  0  0  0  0  0  0  0  0
    4.9798   53.5711  121.7409 C   0  0  0  0  0  0  0  0  0  0  0  0
    3.6540   53.3020  121.9045 C   0  0  0  0  0  0  0  0  0  0  0  0
    3.0198   53.6452  123.0771 C   0  0  0  0  0  0  0  0  0  0  0  0
    3.6803   54.2595  124.1088 C   0  0  0  0  0  0  0  0  0  0  0  0
    2.8759   54.6796  125.5637 S   0  0  0  0  0  0  0  0  0  0  0  0
    2.1995   56.0184  125.4081 O   0  0  0  0  0  0  0  0  0  0  0  0
    3.7642   54.7509  126.7741 O   0  0  0  0  0  0  0  0  0  0  0  0
    1.5795   53.5303  125.9842 C   0  0  0  0  0  0  0  0  0  0  0  0
    2.1063   52.1334  126.0460 C   0  0  0  0  0  0  0  0  0  0  0  0
    0.7620   53.9590  127.1566 C   0  0  0  0  0  0  0  0  0  0  0  0
    6.8976   49.6793  129.1176 C   0  0  0  0  0  0  0  0  0  0  0  0
    7.5403   48.7295  129.8902 C   0  0  0  0  0  0  0  0  0  0  0  0
    8.4659   49.0777  130.8486 C   0  0  0  0  0  0  0  0  0  0  0  0
    8.7150   50.4208  130.9938 C   0  0  0  0  0  0  0  0  0  0  0  0
    8.0830   51.4068  130.2298 C   0  0  0  0  0  0  0  0  0  0  0  0
    7.1614   51.0538  129.2763 C   0  0  0  0  0  0  0  0  0  0  0  0
    9.1280   48.0833  131.6349 N   0  0  0  0  0  0  0  0  0  0  0  0
    8.8571   48.0339  133.0307 C   0  0  0  0  0  0  0  0  0  0  0  0
    9.2863   46.7809  133.7410 C   0  0  0  0  0  0  0  0  0  0  0  0
   10.6321   46.2760  133.3426 C   0  0  0  0  0  0  0  0  0  0  0  0
   11.1360   46.8889  132.0512 C   0  0  0  0  0  0  0  0  0  0  0  0
   10.0572   47.1440  131.0540 C   0  0  0  0  0  0  0  0  0  0  0  0
   10.8155   44.8805  133.2923 N   0  0  0  0  0  0  0  0  0  0  0  0
    9.6994   44.0335  133.3710 C   0  0  0  0  0  0  0  0  0  0  0  0
   10.1588   42.6067  133.6843 C   0  0  0  0  0  0  0  0  0  0  0  0
   11.2993   42.3138  132.8381 N   0  0  0  0  0  0  0  0  0  0  0  0
   10.9774   42.1463  131.4569 C   0  0  0  0  0  0  0  0  0  0  0  0
   12.4332   43.1358  133.1135 C   0  0  0  0  0  0  0  0  0  0  0  0
   11.9822   44.3505  133.9219 C   0  0  0  0  0  0  0  0  0  0  0  0
    5.4139   47.9726  128.2909 C   0  0  0  0  0  0  0  0  0  0  0  0
    5.9765   49.2591  128.1706 O   0  0  0  0  0  0  0  0  0  0  0  0
 43 44  1  0  0  0
 44 24  1  0  0  0
 24 25  2  0  0  0
 25 26  1  0  0  0
 26 27  2  0  0  0
 27 28  1  0  0  0
 28 29  2  0  0  0
 29  1  1  0  0  0
  1  3  1  0  0  0
  3  4  2  0  0  0
  4  5  1  0  0  0
  5  6  2  0  0  0
  6  7  1  0  0  0
  6  8  1  0  0  0
  8 10  1  0  0  0
 10 12  1  0  0  0
 12 13  2  0  0  0
 13 14  1  0  0  0
 14 15  2  0  0  0
 15 16  1  0  0  0
 16 17  2  0  0  0
 17 18  1  0  0  0
 18 19  2  0  0  0
 18 20  2  0  0  0
 18 21  1  0  0  0
 21 22  1  0  0  0
 21 23  1  0  0  0
  8  9  2  0  0  0
 26 30  1  0  0  0
 30 31  1  0  0  0
 31 32  1  0  0  0
 32 33  1  0  0  0
 33 34  1  0  0  0
 34 35  1  0  0  0
 33 36  1  0  0  0
 36 37  1  0  0  0
 37 38  1  0  0  0
 38 39  1  0  0  0
 39 40  1  0  0  0
 39 41  1  0  0  0
 41 42  1  0  0  0
 29 24  1  0  0  0
  9  3  1  0  0  0
 35 30  1  0  0  0
 42 36  1  0  0  0
 17 12  1  0  0  0
  1  2  1  0  0  0
 10 11  1  0  0  0
M  END
> <minimizedAffinity>
2.20226

> <CNNscore>
0.3884042203

> <CNNaffinity>
7.5270423889

> <CNN_VS>
2.9235351086

> <CNNaffinity_variance>
0.2707117796

$$$$
[H]c1nc(N([H])c2c([H])c([H])c(N3C([H])([H])C([H])([H])C([H])(N4C([H])([H])C([H])([H])N(C([H])([H])[H])C([H])([H])C4([H])[H])C([H])([H])C3([H])[H])c([H])c2OC([H])([H])[H])nc(N([H])c2c([H])c([H])c([H])c([H])c2S(=O)(=O)C([H])(C([H])([H])[H])C([H])([H])[H])c1Cl


 44 48  0  0  0  0  0  0  0  0999 V2000
    6.8453   46.5824  129.6101 N   0  0  0  0  0  0  0  0  0  0  0  0
    5.8405   46.2648  129.8568 H   0  0  0  0  0  0  0  0  0  0  0  0
    7.8676   45.6117  129.7806 C   0  0  0  0  0  0  0  0  0  0  0  0
    7.9145   44.4063  129.2079 N   0  0  0  0  0  0  0  0  0  0  0  0
    8.9125   43.5374  129.4118 C   0  0  0  0  0  0  0  0  0  0  0  0
    9.9534   43.8732  130.2455 C   0  0  0  0  0  0  0  0  0  0  0  0
   11.2748   42.7435  130.5255 Cl  0  0  0  0  0  0  0  0  0  0  0  0
    9.9278   45.1408  130.8630 C   0  0  0  0  0  0  0  0  0  0  0  0
    8.8895   45.9355  130.5961 N   0  0  0  0  0  0  0  0  0  0  0  0
   11.0026   45.4594  131.7072 N   0  0  0  0  0  0  0  0  0  0  0  0
   11.9276   44.9828  131.4461 H   0  0  0  0  0  0  0  0  0  0  0  0
   11.0875   46.2911  132.8339 C   0  0  0  0  0  0  0  0  0  0  0  0
   11.0593   47.6615  132.6837 C   0  0  0  0  0  0  0  0  0  0  0  0
   11.1450   48.5054  133.7985 C   0  0  0  0  0  0  0  0  0  0  0  0
   11.2571   47.9536  135.0394 C   0  0  0  0  0  0  0  0  0  0  0  0
   11.2847   46.5852  135.1861 C   0  0  0  0  0  0  0  0  0  0  0  0
   11.2027   45.7364  134.1134 C   0  0  0  0  0  0  0  0  0  0  0  0
   11.2374   44.0338  134.3133 S   0  0  0  0  0  0  0  0  0  0  0  0
   11.6477   43.6908  135.7233 O   0  0  0  0  0  0  0  0  0  0  0  0
   12.1634   43.3104  133.3760 O   0  0  0  0  0  0  0  0  0  0  0  0
    9.6359   43.2857  134.0816 C   0  0  0  0  0  0  0  0  0  0  0  0
    8.5906   44.3277  133.8486 C   0  0  0  0  0  0  0  0  0  0  0  0
    9.6427   42.1560  133.1066 C   0  0  0  0  0  0  0  0  0  0  0  0
    5.8096   48.7156  129.2243 C   0  0  0  0  0  0  0  0  0  0  0  0
    5.8359   50.0323  128.8025 C   0  0  0  0  0  0  0  0  0  0  0  0
    6.9808   50.6129  128.3041 C   0  0  0  0  0  0  0  0  0  0  0  0
    8.0950   49.8112  128.2496 C   0  0  0  0  0  0  0  0  0  0  0  0
    8.1029   48.4766  128.6674 C   0  0  0  0  0  0  0  0  0  0  0  0
    6.9589   47.9035  129.1631 C   0  0  0  0  0  0  0  0  0  0  0  0
    6.9943   51.9783  127.8787 N   0  0  0  0  0  0  0  0  0  0  0  0
    7.2583   52.9860  128.8477 C   0  0  0  0  0  0  0  0  0  0  0  0
    7.6088   54.3439  128.3071 C   0  0  0  0  0  0  0  0  0  0  0  0
    6.7716   54.7835  127.1534 C   0  0  0  0  0  0  0  0  0  0  0  0
    6.0004   53.6462  126.5141 C   0  0  0  0  0  0  0  0  0  0  0  0
    6.7438   52.3538  126.5078 C   0  0  0  0  0  0  0  0  0  0  0  0
    7.3992   55.5391  126.1440 N   0  0  0  0  0  0  0  0  0  0  0  0
    8.7887   55.4439  125.9722 C   0  0  0  0  0  0  0  0  0  0  0  0
    9.2805   56.6107  125.1109 C   0  0  0  0  0  0  0  0  0  0  0  0
    8.3666   56.7516  123.9941 N   0  0  0  0  0  0  0  0  0  0  0  0
    8.4576   55.7058  123.0260 C   0  0  0  0  0  0  0  0  0  0  0  0
    7.0441   57.1157  124.3886 C   0  0  0  0  0  0  0  0  0  0  0  0
    6.8776   56.8421  125.8819 C   0  0  0  0  0  0  0  0  0  0  0  0
    4.3566   46.8218  129.5398 C   0  0  0  0  0  0  0  0  0  0  0  0
    4.6227   48.1945  129.7156 O   0  0  0  0  0  0  0  0  0  0  0  0
 43 44  1  0  0  0
 44 24  1  0  0  0
 24 25  2  0  0  0
 25 26  1  0  0  0
 26 27  2  0  0  0
 27 28  1  0  0  0
 28 29  2  0  0  0
 29  1  1  0  0  0
  1  3  1  0  0  0
  3  4  2  0  0  0
  4  5  1  0  0  0
  5  6  2  0  0  0
  6  7  1  0  0  0
  6  8  1  0  0  0
  8 10  1  0  0  0
 10 12  1  0  0  0
 12 13  2  0  0  0
 13 14  1  0  0  0
 14 15  2  0  0  0
 15 16  1  0  0  0
 16 17  2  0  0  0
 17 18  1  0  0  0
 18 19  2  0  0  0
 18 20  2  0  0  0
 18 21  1  0  0  0
 21 22  1  0  0  0
 21 23  1  0  0  0
  8  9  2  0  0  0
 26 30  1  0  0  0
 30 31  1  0  0  0
 31 32  1  0  0  0
 32 33  1  0  0  0
 33 34  1  0  0  0
 34 35  1  0  0  0
 33 36  1  0  0  0
 36 37  1  0  0  0
 37 38  1  0  0  0
 38 39  1  0  0  0
 39 40  1  0  0  0
 39 41  1  0  0  0
 41 42  1  0  0  0
 29 24  1  0  0  0
  9  3  1  0  0  0
 35 30  1  0  0  0
 42 36  1  0  0  0
 17 12  1  0  0  0
  1  2  1  0  0  0
 10 11  1  0  0  0
M  END
> <minimizedAffinity>
13.83759

> <CNNscore>
0.3657521904

> <CNNaffinity>
7.7584562302

> <CNN_VS>
2.8376724720

> <CNNaffinity_variance>
0.4178086221

$$$$
[H]c1nc(N([H])c2c([H])c([H])c(N3C([H])([H])C([H])([H])C([H])(N4C([H])([H])C([H])([H])N(C([H])([H])[H])C([H])([H])C4([H])[H])C([H])([H])C3([H])[H])c([H])c2OC([H])([H])[H])nc(N([H])c2c([H])c([H])c([H])c([H])c2S(=O)(=O)C([H])(C([H])([H])[H])C([H])([H])[H])c1Cl


 44 48  0  0  0  0  0  0  0  0999 V2000
    6.2513   51.9876  128.3818 N   0  0  0  0  0  0  0  0  0  0  0  0
    5.1899   52.0491  128.5838 H   0  0  0  0  0  0  0  0  0  0  0  0
    6.8479   53.1444  127.8139 C   0  0  0  0  0  0  0  0  0  0  0  0
    7.9483   53.7608  128.2525 N   0  0  0  0  0  0  0  0  0  0  0  0
    8.4594   54.8507  127.6666 C   0  0  0  0  0  0  0  0  0  0  0  0
    7.8447   55.3847  126.5583 C   0  0  0  0  0  0  0  0  0  0  0  0
    8.5027   56.8176  125.7744 Cl  0  0  0  0  0  0  0  0  0  0  0  0
    6.6806   54.7523  126.0748 C   0  0  0  0  0  0  0  0  0  0  0  0
    6.2498   53.6714  126.7282 N   0  0  0  0  0  0  0  0  0  0  0  0
    6.0739   55.3159  124.9418 N   0  0  0  0  0  0  0  0  0  0  0  0
    6.1796   56.3808  124.8660 H   0  0  0  0  0  0  0  0  0  0  0  0
    5.3525   54.7377  123.8866 C   0  0  0  0  0  0  0  0  0  0  0  0
    3.9757   54.6835  123.9402 C   0  0  0  0  0  0  0  0  0  0  0  0
    3.2410   54.1078  122.8956 C   0  0  0  0  0  0  0  0  0  0  0  0
    3.9060   53.5993  121.8205 C   0  0  0  0  0  0  0  0  0  0  0  0
    5.2805   53.6550  121.7697 C   0  0  0  0  0  0  0  0  0  0  0  0
    6.0239   54.2123  122.7771 C   0  0  0  0  0  0  0  0  0  0  0  0
    7.7356   54.2749  122.6980 S   0  0  0  0  0  0  0  0  0  0  0  0
    8.2361   53.3199  121.6436 O   0  0  0  0  0  0  0  0  0  0  0  0
    8.4361   53.9456  123.9866 O   0  0  0  0  0  0  0  0  0  0  0  0
    8.3393   55.8823  122.2183 C   0  0  0  0  0  0  0  0  0  0  0  0
    9.7047   56.1256  122.7744 C   0  0  0  0  0  0  0  0  0  0  0  0
    8.1808   56.1668  120.7620 C   0  0  0  0  0  0  0  0  0  0  0  0
    6.7878   50.3600  130.0656 C   0  0  0  0  0  0  0  0  0  0  0  0
    7.3556   49.1703  130.4833 C   0  0  0  0  0  0  0  0  0  0  0  0
    8.0085   48.3303  129.6089 C   0  0  0  0  0  0  0  0  0  0  0  0
    8.0640   48.7403  128.2989 C   0  0  0  0  0  0  0  0  0  0  0  0
    7.5010   49.9366  127.8433 C   0  0  0  0  0  0  0  0  0  0  0  0
    6.8517   50.7695  128.7194 C   0  0  0  0  0  0  0  0  0  0  0  0
    8.5842   47.0994  130.0545 N   0  0  0  0  0  0  0  0  0  0  0  0
    9.1624   46.2331  129.0852 C   0  0  0  0  0  0  0  0  0  0  0  0
   10.0516   45.1460  129.6204 C   0  0  0  0  0  0  0  0  0  0  0  0
    9.5283   44.4657  130.8405 C   0  0  0  0  0  0  0  0  0  0  0  0
    8.4134   45.2381  131.5168 C   0  0  0  0  0  0  0  0  0  0  0  0
    8.5875   46.7172  131.4463 C   0  0  0  0  0  0  0  0  0  0  0  0
   10.4640   44.0615  131.8124 N   0  0  0  0  0  0  0  0  0  0  0  0
   11.8076   43.8858  131.4476 C   0  0  0  0  0  0  0  0  0  0  0  0
   12.5352   43.0908  132.5354 C   0  0  0  0  0  0  0  0  0  0  0  0
   12.1432   43.6380  133.8197 N   0  0  0  0  0  0  0  0  0  0  0  0
   12.6790   44.9330  134.0937 C   0  0  0  0  0  0  0  0  0  0  0  0
   10.7550   43.4700  134.1056 C   0  0  0  0  0  0  0  0  0  0  0  0
   10.0165   43.1427  132.8095 C   0  0  0  0  0  0  0  0  0  0  0  0
    4.7479   51.0467  131.1449 C   0  0  0  0  0  0  0  0  0  0  0  0
    6.1452   51.1582  130.9992 O   0  0  0  0  0  0  0  0  0  0  0  0
 43 44  1  0  0  0
 44 24  1  0  0  0
 24 25  2  0  0  0
 25 26  1  0  0  0
 26 27  2  0  0  0
 27 28  1  0  0  0
 28 29  2  0  0  0
 29  1  1  0  0  0
  1  3  1  0  0  0
  3  4  2  0  0  0
  4  5  1  0  0  0
  5  6  2  0  0  0
  6  7  1  0  0  0
  6  8  1  0  0  0
  8 10  1  0  0  0
 10 12  1  0  0  0
 12 13  2  0  0  0
 13 14  1  0  0  0
 14 15  2  0  0  0
 15 16  1  0  0  0
 16 17  2  0  0  0
 17 18  1  0  0  0
 18 19  2  0  0  0
 18 20  2  0  0  0
 18 21  1  0  0  0
 21 22  1  0  0  0
 21 23  1  0  0  0
  8  9  2  0  0  0
 26 30  1  0  0  0
 30 31  1  0  0  0
 31 32  1  0  0  0
 32 33  1  0  0  0
 33 34  1  0  0  0
 34 35  1  0  0  0
 33 36  1  0  0  0
 36 37  1  0  0  0
 37 38  1  0  0  0
 38 39  1  0  0  0
 39 40  1  0  0  0
 39 41  1  0  0  0
 41 42  1  0  0  0
 29 24  1  0  0  0
  9  3  1  0  0  0
 35 30  1  0  0  0
 42 36  1  0  0  0
 17 12  1  0  0  0
  1  2  1  0  0  0
 10 11  1  0  0  0
M  END
> <minimizedAffinity>
4.11297

> <CNNscore>
0.3533925414

> <CNNaffinity>
7.5053129196

> <CNN_VS>
2.6523215771

> <CNNaffinity_variance>
0.6628227830

$$$$
[H]c1nc(N([H])c2c([H])c([H])c(N3C([H])([H])C([H])([H])C([H])(N4C([H])([H])C([H])([H])N(C([H])([H])[H])C([H])([H])C4([H])[H])C([H])([H])C3([H])[H])c([H])c2OC([H])([H])[H])nc(N([H])c2c([H])c([H])c([H])c([H])c2S(=O)(=O)C([H])(C([H])([H])[H])C([H])([H])[H])c1Cl


 44 48  0  0  0  0  0  0  0  0999 V2000
    6.7093   52.2801  128.5806 N   0  0  0  0  0  0  0  0  0  0  0  0
    5.9119   52.5918  129.2426 H   0  0  0  0  0  0  0  0  0  0  0  0
    7.1750   53.2556  127.6598 C   0  0  0  0  0  0  0  0  0  0  0  0
    8.4138   53.7499  127.5932 N   0  0  0  0  0  0  0  0  0  0  0  0
    8.7872   54.6704  126.6956 C   0  0  0  0  0  0  0  0  0  0  0  0
    7.8744   55.1495  125.7855 C   0  0  0  0  0  0  0  0  0  0  0  0
    8.3474   56.3601  124.5975 Cl  0  0  0  0  0  0  0  0  0  0  0  0
    6.5589   54.6436  125.8346 C   0  0  0  0  0  0  0  0  0  0  0  0
    6.2849   53.7282  126.7662 N   0  0  0  0  0  0  0  0  0  0  0  0
    5.6476   55.1475  124.8938 N   0  0  0  0  0  0  0  0  0  0  0  0
    5.4987   56.2087  124.9454 H   0  0  0  0  0  0  0  0  0  0  0  0
    4.8940   54.5135  123.8945 C   0  0  0  0  0  0  0  0  0  0  0  0
    5.4751   54.2061  122.6825 C   0  0  0  0  0  0  0  0  0  0  0  0
    4.7356   53.5749  121.6740 C   0  0  0  0  0  0  0  0  0  0  0  0
    3.4287   53.2667  121.9058 C   0  0  0  0  0  0  0  0  0  0  0  0
    2.8514   53.5748  123.1169 C   0  0  0  0  0  0  0  0  0  0  0  0
    3.5511   54.1918  124.1206 C   0  0  0  0  0  0  0  0  0  0  0  0
    2.8175   54.5677  125.6242 S   0  0  0  0  0  0  0  0  0  0  0  0
    2.1829   55.9342  125.5582 O   0  0  0  0  0  0  0  0  0  0  0  0
    3.7528   54.5513  126.8007 O   0  0  0  0  0  0  0  0  0  0  0  0
    1.4985   53.4431  126.0412 C   0  0  0  0  0  0  0  0  0  0  0  0
    2.0007   52.0377  126.1140 C   0  0  0  0  0  0  0  0  0  0  0  0
    0.6801   53.8920  127.2055 C   0  0  0  0  0  0  0  0  0  0  0  0
    7.8651   50.6564  129.9222 C   0  0  0  0  0  0  0  0  0  0  0  0
    8.3302   49.3776  130.1686 C   0  0  0  0  0  0  0  0  0  0  0  0
    8.1120   48.3427  129.2867 C   0  0  0  0  0  0  0  0  0  0  0  0
    7.4066   48.6517  128.1491 C   0  0  0  0  0  0  0  0  0  0  0  0
    6.9226   49.9334  127.8691 C   0  0  0  0  0  0  0  0  0  0  0  0
    7.1432   50.9607  128.7517 C   0  0  0  0  0  0  0  0  0  0  0  0
    8.5929   47.0236  129.5589 N   0  0  0  0  0  0  0  0  0  0  0  0
    9.7287   46.5561  128.8407 C   0  0  0  0  0  0  0  0  0  0  0  0
   10.4021   45.3331  129.3969 C   0  0  0  0  0  0  0  0  0  0  0  0
    9.4645   44.2673  129.8553 C   0  0  0  0  0  0  0  0  0  0  0  0
    8.0425   44.7629  130.0259 C   0  0  0  0  0  0  0  0  0  0  0  0
    7.9578   46.1640  130.5288 C   0  0  0  0  0  0  0  0  0  0  0  0
    9.8319   43.5218  130.9924 N   0  0  0  0  0  0  0  0  0  0  0  0
   11.1237   42.9801  131.0761 C   0  0  0  0  0  0  0  0  0  0  0  0
   11.1641   41.9166  132.1771 C   0  0  0  0  0  0  0  0  0  0  0  0
   10.4680   42.4495  133.3321 N   0  0  0  0  0  0  0  0  0  0  0  0
   11.1670   43.4960  134.0070 C   0  0  0  0  0  0  0  0  0  0  0  0
    9.0800   42.6846  133.0965 C   0  0  0  0  0  0  0  0  0  0  0  0
    8.8274   42.7022  131.5904 C   0  0  0  0  0  0  0  0  0  0  0  0
    8.9692   51.3656  131.9410 C   0  0  0  0  0  0  0  0  0  0  0  0
    8.1204   51.6515  130.8530 O   0  0  0  0  0  0  0  0  0  0  0  0
 43 44  1  0  0  0
 44 24  1  0  0  0
 24 25  2  0  0  0
 25 26  1  0  0  0
 26 27  2  0  0  0
 27 28  1  0  0  0
 28 29  2  0  0  0
 29  1  1  0  0  0
  1  3  1  0  0  0
  3  4  2  0  0  0
  4  5  1  0  0  0
  5  6  2  0  0  0
  6  7  1  0  0  0
  6  8  1  0  0  0
  8 10  1  0  0  0
 10 12  1  0  0  0
 12 13  2  0  0  0
 13 14  1  0  0  0
 14 15  2  0  0  0
 15 16  1  0  0  0
 16 17  2  0  0  0
 17 18  1  0  0  0
 18 19  2  0  0  0
 18 20  2  0  0  0
 18 21  1  0  0  0
 21 22  1  0  0  0
 21 23  1  0  0  0
  8  9  2  0  0  0
 26 30  1  0  0  0
 30 31  1  0  0  0
 31 32  1  0  0  0
 32 33  1  0  0  0
 33 34  1  0  0  0
 34 35  1  0  0  0
 33 36  1  0  0  0
 36 37  1  0  0  0
 37 38  1  0  0  0
 38 39  1  0  0  0
 39 40  1  0  0  0
 39 41  1  0  0  0
 41 42  1  0  0  0
 29 24  1  0  0  0
  9  3  1  0  0  0
 35 30  1  0  0  0
 42 36  1  0  0  0
 17 12  1  0  0  0
  1  2  1  0  0  0
 10 11  1  0  0  0
M  END
> <minimizedAffinity>
3.02859

> <CNNscore>
0.3514698148

> <CNNaffinity>
7.5012235641

> <CNN_VS>
2.6364536285

> <CNNaffinity_variance>
0.3932379484

$$$$
[H]c1nc(N([H])c2c([H])c([H])c(N3C([H])([H])C([H])([H])C([H])(N4C([H])([H])C([H])([H])N(C([H])([H])[H])C([H])([H])C4([H])[H])C([H])([H])C3([H])[H])c([H])c2OC([H])([H])[H])nc(N([H])c2c([H])c([H])c([H])c([H])c2S(=O)(=O)C([H])(C([H])([H])[H])C([H])([H])[H])c1Cl


 44 48  0  0  0  0  0  0  0  0999 V2000
    6.4463   51.9179  128.4132 N   0  0  0  0  0  0  0  0  0  0  0  0
    5.4337   51.6320  128.1601 H   0  0  0  0  0  0  0  0  0  0  0  0
    6.9044   53.1461  127.8671 C   0  0  0  0  0  0  0  0  0  0  0  0
    7.9424   53.8647  128.3023 N   0  0  0  0  0  0  0  0  0  0  0  0
    8.3222   55.0179  127.7380 C   0  0  0  0  0  0  0  0  0  0  0  0
    7.6305   55.5120  126.6570 C   0  0  0  0  0  0  0  0  0  0  0  0
    8.1157   57.0269  125.9017 Cl  0  0  0  0  0  0  0  0  0  0  0  0
    6.5299   54.7720  126.1777 C   0  0  0  0  0  0  0  0  0  0  0  0
    6.2304   53.6345  126.8082 N   0  0  0  0  0  0  0  0  0  0  0  0
    5.8426   55.2970  125.0726 N   0  0  0  0  0  0  0  0  0  0  0  0
    5.7962   56.3686  125.0478 H   0  0  0  0  0  0  0  0  0  0  0  0
    5.2033   54.6731  123.9907 C   0  0  0  0  0  0  0  0  0  0  0  0
    3.8290   54.5625  123.9718 C   0  0  0  0  0  0  0  0  0  0  0  0
    3.1759   53.9408  122.8998 C   0  0  0  0  0  0  0  0  0  0  0  0
    3.9181   53.4439  121.8708 C   0  0  0  0  0  0  0  0  0  0  0  0
    5.2900   53.5561  121.8924 C   0  0  0  0  0  0  0  0  0  0  0  0
    5.9545   54.1592  122.9280 C   0  0  0  0  0  0  0  0  0  0  0  0
    7.6640   54.2919  122.9393 S   0  0  0  0  0  0  0  0  0  0  0  0
    8.2626   53.2945  121.9794 O   0  0  0  0  0  0  0  0  0  0  0  0
    8.3016   54.0764  124.2833 O   0  0  0  0  0  0  0  0  0  0  0  0
    8.2291   55.8904  122.3883 C   0  0  0  0  0  0  0  0  0  0  0  0
    9.5807   56.1982  122.9461 C   0  0  0  0  0  0  0  0  0  0  0  0
    8.0800   56.0997  120.9183 C   0  0  0  0  0  0  0  0  0  0  0  0
    6.7869   49.6562  129.1485 C   0  0  0  0  0  0  0  0  0  0  0  0
    7.4130   48.7028  129.9303 C   0  0  0  0  0  0  0  0  0  0  0  0
    8.3978   49.0363  130.8334 C   0  0  0  0  0  0  0  0  0  0  0  0
    8.7232   50.3685  130.9138 C   0  0  0  0  0  0  0  0  0  0  0  0
    8.1101   51.3578  130.1386 C   0  0  0  0  0  0  0  0  0  0  0  0
    7.1293   51.0194  129.2405 C   0  0  0  0  0  0  0  0  0  0  0  0
    9.0415   48.0380  131.6298 N   0  0  0  0  0  0  0  0  0  0  0  0
    8.7136   47.9604  133.0121 C   0  0  0  0  0  0  0  0  0  0  0  0
    9.1317   46.7014  133.7185 C   0  0  0  0  0  0  0  0  0  0  0  0
   10.5004   46.2229  133.3683 C   0  0  0  0  0  0  0  0  0  0  0  0
   11.0482   46.8655  132.1096 C   0  0  0  0  0  0  0  0  0  0  0  0
   10.0081   47.1224  131.0726 C   0  0  0  0  0  0  0  0  0  0  0  0
   10.7067   44.8313  133.3022 N   0  0  0  0  0  0  0  0  0  0  0  0
    9.6032   43.9658  133.3525 C   0  0  0  0  0  0  0  0  0  0  0  0
   10.0806   42.5423  133.6537 C   0  0  0  0  0  0  0  0  0  0  0  0
   11.2382   42.2789  132.8212 N   0  0  0  0  0  0  0  0  0  0  0  0
   10.9398   42.1252  131.4332 C   0  0  0  0  0  0  0  0  0  0  0  0
   12.3546   43.1148  133.1248 C   0  0  0  0  0  0  0  0  0  0  0  0
   11.8721   44.3112  133.9424 C   0  0  0  0  0  0  0  0  0  0  0  0
    5.3831   47.9059  128.2748 C   0  0  0  0  0  0  0  0  0  0  0  0
    5.8034   49.2509  128.2595 O   0  0  0  0  0  0  0  0  0  0  0  0
 43 44  1  0  0  0
 44 24  1  0  0  0
 24 25  2  0  0  0
 25 26  1  0  0  0
 26 27  2  0  0  0
 27 28  1  0  0  0
 28 29  2  0  0  0
 29  1  1  0  0  0
  1  3  1  0  0  0
  3  4  2  0  0  0
  4  5  1  0  0  0
  5  6  2  0  0  0
  6  7  1  0  0  0
  6  8  1  0  0  0
  8 10  1  0  0  0
 10 12  1  0  0  0
 12 13  2  0  0  0
 13 14  1  0  0  0
 14 15  2  0  0  0
 15 16  1  0  0  0
 16 17  2  0  0  0
 17 18  1  0  0  0
 18 19  2  0  0  0
 18 20  2  0  0  0
 18 21  1  0  0  0
 21 22  1  0  0  0
 21 23  1  0  0  0
  8  9  2  0  0  0
 26 30  1  0  0  0
 30 31  1  0  0  0
 31 32  1  0  0  0
 32 33  1  0  0  0
 33 34  1  0  0  0
 34 35  1  0  0  0
 33 36  1  0  0  0
 36 37  1  0  0  0
 37 38  1  0  0  0
 38 39  1  0  0  0
 39 40  1  0  0  0
 39 41  1  0  0  0
 41 42  1  0  0  0
 29 24  1  0  0  0
  9  3  1  0  0  0
 35 30  1  0  0  0
 42 36  1  0  0  0
 17 12  1  0  0  0
  1  2  1  0  0  0
 10 11  1  0  0  0
M  END
> <minimizedAffinity>
1.50704

> <CNNscore>
0.3303848803

> <CNNaffinity>
7.5072364807

> <CNN_VS>
2.4802775383

> <CNNaffinity_variance>
0.8620299101

$$$$
[H]c1nc(N([H])c2c([H])c([H])c(N3C([H])([H])C([H])([H])C([H])(N4C([H])([H])C([H])([H])N(C([H])([H])[H])C([H])([H])C4([H])[H])C([H])([H])C3([H])[H])c([H])c2OC([H])([H])[H])nc(N([H])c2c([H])c([H])c([H])c([H])c2S(=O)(=O)C([H])(C([H])([H])[H])C([H])([H])[H])c1Cl


 44 48  0  0  0  0  0  0  0  0999 V2000
    9.5823   47.4758  133.5627 N   0  0  0  0  0  0  0  0  0  0  0  0
   10.2479   47.8345  134.3370 H   0  0  0  0  0  0  0  0  0  0  0  0
    9.2293   46.1019  133.6284 C   0  0  0  0  0  0  0  0  0  0  0  0
    8.4845   45.5230  134.5736 N   0  0  0  0  0  0  0  0  0  0  0  0
    8.1875   44.2175  134.5740 C   0  0  0  0  0  0  0  0  0  0  0  0
    8.6572   43.4079  133.5665 C   0  0  0  0  0  0  0  0  0  0  0  0
    8.2767   41.6887  133.5504 Cl  0  0  0  0  0  0  0  0  0  0  0  0
    9.4463   43.9948  132.5557 C   0  0  0  0  0  0  0  0  0  0  0  0
    9.6867   45.3045  132.6440 N   0  0  0  0  0  0  0  0  0  0  0  0
    9.9113   43.1472  131.5385 N   0  0  0  0  0  0  0  0  0  0  0  0
   10.2386   42.1840  131.8792 H   0  0  0  0  0  0  0  0  0  0  0  0
   10.0258   43.3312  130.1523 C   0  0  0  0  0  0  0  0  0  0  0  0
    8.9841   42.9776  129.3210 C   0  0  0  0  0  0  0  0  0  0  0  0
    9.0836   43.1532  127.9348 C   0  0  0  0  0  0  0  0  0  0  0  0
   10.2275   43.6802  127.4147 C   0  0  0  0  0  0  0  0  0  0  0  0
   11.2656   44.0324  128.2472 C   0  0  0  0  0  0  0  0  0  0  0  0
   11.1953   43.8716  129.6063 C   0  0  0  0  0  0  0  0  0  0  0  0
   12.4971   44.3166  130.6298 S   0  0  0  0  0  0  0  0  0  0  0  0
   12.7783   43.2087  131.6136 O   0  0  0  0  0  0  0  0  0  0  0  0
   12.2770   45.5812  131.4118 O   0  0  0  0  0  0  0  0  0  0  0  0
   14.0181   44.5628  129.7330 C   0  0  0  0  0  0  0  0  0  0  0  0
   14.8603   43.3290  129.7652 C   0  0  0  0  0  0  0  0  0  0  0  0
   13.8214   45.1692  128.3837 C   0  0  0  0  0  0  0  0  0  0  0  0
    8.2040   48.0682  131.6862 C   0  0  0  0  0  0  0  0  0  0  0  0
    7.7553   48.9582  130.7276 C   0  0  0  0  0  0  0  0  0  0  0  0
    8.2419   50.2438  130.6454 C   0  0  0  0  0  0  0  0  0  0  0  0
    9.1975   50.5925  131.5687 C   0  0  0  0  0  0  0  0  0  0  0  0
    9.6733   49.7176  132.5504 C   0  0  0  0  0  0  0  0  0  0  0  0
    9.1846   48.4376  132.6273 C   0  0  0  0  0  0  0  0  0  0  0  0
    7.7625   51.1553  129.6530 N   0  0  0  0  0  0  0  0  0  0  0  0
    6.9589   52.2515  130.0734 C   0  0  0  0  0  0  0  0  0  0  0  0
    6.7778   53.3576  129.0721 C   0  0  0  0  0  0  0  0  0  0  0  0
    6.5279   52.8921  127.6771 C   0  0  0  0  0  0  0  0  0  0  0  0
    6.8779   51.4323  127.4684 C   0  0  0  0  0  0  0  0  0  0  0  0
    8.0662   50.9883  128.2520 C   0  0  0  0  0  0  0  0  0  0  0  0
    7.0800   53.6526  126.6281 N   0  0  0  0  0  0  0  0  0  0  0  0
    8.2167   53.1792  125.9551 C   0  0  0  0  0  0  0  0  0  0  0  0
    8.8484   54.3185  125.1502 C   0  0  0  0  0  0  0  0  0  0  0  0
    7.7799   55.0247  124.4704 N   0  0  0  0  0  0  0  0  0  0  0  0
    7.1854   54.2955  123.3961 C   0  0  0  0  0  0  0  0  0  0  0  0
    6.8681   55.6644  125.3628 C   0  0  0  0  0  0  0  0  0  0  0  0
    7.0432   55.0738  126.7603 C   0  0  0  0  0  0  0  0  0  0  0  0
    7.3072   46.1771  130.4957 C   0  0  0  0  0  0  0  0  0  0  0  0
    7.6710   46.7887  131.7121 O   0  0  0  0  0  0  0  0  0  0  0  0
 43 44  1  0  0  0
 44 24  1  0  0  0
 24 25  2  0  0  0
 25 26  1  0  0  0
 26 27  2  0  0  0
 27 28  1  0  0  0
 28 29  2  0  0  0
 29  1  1  0  0  0
  1  3  1  0  0  0
  3  4  2  0  0  0
  4  5  1  0  0  0
  5  6  2  0  0  0
  6  7  1  0  0  0
  6  8  1  0  0  0
  8 10  1  0  0  0
 10 12  1  0  0  0
 12 13  2  0  0  0
 13 14  1  0  0  0
 14 15  2  0  0  0
 15 16  1  0  0  0
 16 17  2  0  0  0
 17 18  1  0  0  0
 18 19  2  0  0  0
 18 20  2  0  0  0
 18 21  1  0  0  0
 21 22  1  0  0  0
 21 23  1  0  0  0
  8  9  2  0  0  0
 26 30  1  0  0  0
 30 31  1  0  0  0
 31 32  1  0  0  0
 32 33  1  0  0  0
 33 34  1  0  0  0
 34 35  1  0  0  0
 33 36  1  0  0  0
 36 37  1  0  0  0
 37 38  1  0  0  0
 38 39  1  0  0  0
 39 40  1  0  0  0
 39 41  1  0  0  0
 41 42  1  0  0  0
 29 24  1  0  0  0
  9  3  1  0  0  0
 35 30  1  0  0  0
 42 36  1  0  0  0
 17 12  1  0  0  0
  1  2  1  0  0  0
 10 11  1  0  0  0
M  END
> <minimizedAffinity>
14.54472

> <CNNscore>
0.2848951519

> <CNNaffinity>
7.6064934731

> <CNN_VS>
2.1670532227

> <CNNaffinity_variance>
0.0813830197

$$$$
[H]c1nc(N([H])c2c([H])c([H])c(N3C([H])([H])C([H])([H])C([H])(N4C([H])([H])C([H])([H])N(C([H])([H])[H])C([H])([H])C4([H])[H])C([H])([H])C3([H])[H])c([H])c2OC([H])([H])[H])nc(N([H])c2c([H])c([H])c([H])c([H])c2S(=O)(=O)C([H])(C([H])([H])[H])C([H])([H])[H])c1Cl


 44 48  0  0  0  0  0  0  0  0999 V2000
    7.8033   47.5778  130.5241 N   0  0  0  0  0  0  0  0  0  0  0  0
    7.3875   47.5617  131.5232 H   0  0  0  0  0  0  0  0  0  0  0  0
    8.3509   46.3546  130.0547 C   0  0  0  0  0  0  0  0  0  0  0  0
    7.8734   45.6084  129.0555 N   0  0  0  0  0  0  0  0  0  0  0  0
    8.4419   44.4619  128.6620 C   0  0  0  0  0  0  0  0  0  0  0  0
    9.5726   44.0046  129.2973 C   0  0  0  0  0  0  0  0  0  0  0  0
   10.3341   42.4990  128.7932 Cl  0  0  0  0  0  0  0  0  0  0  0  0
   10.0972   44.7743  130.3560 C   0  0  0  0  0  0  0  0  0  0  0  0
    9.4584   45.9022  130.6735 N   0  0  0  0  0  0  0  0  0  0  0  0
   11.2524   44.2865  130.9861 N   0  0  0  0  0  0  0  0  0  0  0  0
   11.8260   43.6021  130.3916 H   0  0  0  0  0  0  0  0  0  0  0  0
   11.7953   44.5326  132.2562 C   0  0  0  0  0  0  0  0  0  0  0  0
   12.7513   45.5126  132.4198 C   0  0  0  0  0  0  0  0  0  0  0  0
   13.3045   45.7692  133.6810 C   0  0  0  0  0  0  0  0  0  0  0  0
   12.8849   45.0352  134.7496 C   0  0  0  0  0  0  0  0  0  0  0  0
   11.9302   44.0576  134.5831 C   0  0  0  0  0  0  0  0  0  0  0  0
   11.3724   43.7857  133.3613 C   0  0  0  0  0  0  0  0  0  0  0  0
   10.1832   42.5651  133.1709 S   0  0  0  0  0  0  0  0  0  0  0  0
   10.2346   41.6119  134.3383 O   0  0  0  0  0  0  0  0  0  0  0  0
   10.3102   41.7560  131.9105 O   0  0  0  0  0  0  0  0  0  0  0  0
    8.5259   43.2219  133.1572 C   0  0  0  0  0  0  0  0  0  0  0  0
    8.5178   44.6546  133.5814 C   0  0  0  0  0  0  0  0  0  0  0  0
    7.7774   42.9214  131.9016 C   0  0  0  0  0  0  0  0  0  0  0  0
    6.4756   49.1982  129.3478 C   0  0  0  0  0  0  0  0  0  0  0  0
    6.3131   50.4008  128.6848 C   0  0  0  0  0  0  0  0  0  0  0  0
    7.3602   51.2760  128.5002 C   0  0  0  0  0  0  0  0  0  0  0  0
    8.5746   50.8877  129.0116 C   0  0  0  0  0  0  0  0  0  0  0  0
    8.7735   49.6793  129.6866 C   0  0  0  0  0  0  0  0  0  0  0  0
    7.7263   48.8111  129.8674 C   0  0  0  0  0  0  0  0  0  0  0  0
    7.1748   52.5197  127.8189 N   0  0  0  0  0  0  0  0  0  0  0  0
    7.8721   52.7320  126.5970 C   0  0  0  0  0  0  0  0  0  0  0  0
    7.3866   53.8759  125.7517 C   0  0  0  0  0  0  0  0  0  0  0  0
    7.0653   55.1154  126.5168 C   0  0  0  0  0  0  0  0  0  0  0  0
    6.9251   54.8723  128.0062 C   0  0  0  0  0  0  0  0  0  0  0  0
    6.3124   53.5540  128.3379 C   0  0  0  0  0  0  0  0  0  0  0  0
    5.9772   55.8914  126.0723 N   0  0  0  0  0  0  0  0  0  0  0  0
    5.7174   55.9939  124.6971 C   0  0  0  0  0  0  0  0  0  0  0  0
    4.7642   57.1646  124.4406 C   0  0  0  0  0  0  0  0  0  0  0  0
    3.7056   57.0973  125.4293 N   0  0  0  0  0  0  0  0  0  0  0  0
    2.7904   56.0181  125.2363 C   0  0  0  0  0  0  0  0  0  0  0  0
    4.1684   57.2841  126.7664 C   0  0  0  0  0  0  0  0  0  0  0  0
    5.6820   57.0830  126.8013 C   0  0  0  0  0  0  0  0  0  0  0  0
    5.2047   47.2969  128.5945 C   0  0  0  0  0  0  0  0  0  0  0  0
    5.3786   48.3642  129.4983 O   0  0  0  0  0  0  0  0  0  0  0  0
 43 44  1  0  0  0
 44 24  1  0  0  0
 24 25  2  0  0  0
 25 26  1  0  0  0
 26 27  2  0  0  0
 27 28  1  0  0  0
 28 29  2  0  0  0
 29  1  1  0  0  0
  1  3  1  0  0  0
  3  4  2  0  0  0
  4  5  1  0  0  0
  5  6  2  0  0  0
  6  7  1  0  0  0
  6  8  1  0  0  0
  8 10  1  0  0  0
 10 12  1  0  0  0
 12 13  2  0  0  0
 13 14  1  0  0  0
 14 15  2  0  0  0
 15 16  1  0  0  0
 16 17  2  0  0  0
 17 18  1  0  0  0
 18 19  2  0  0  0
 18 20  2  0  0  0
 18 21  1  0  0  0
 21 22  1  0  0  0
 21 23  1  0  0  0
  8  9  2  0  0  0
 26 30  1  0  0  0
 30 31  1  0  0  0
 31 32  1  0  0  0
 32 33  1  0  0  0
 33 34  1  0  0  0
 34 35  1  0  0  0
 33 36  1  0  0  0
 36 37  1  0  0  0
 37 38  1  0  0  0
 38 39  1  0  0  0
 39 40  1  0  0  0
 39 41  1  0  0  0
 41 42  1  0  0  0
 29 24  1  0  0  0
  9  3  1  0  0  0
 35 30  1  0  0  0
 42 36  1  0  0  0
 17 12  1  0  0  0
  1  2  1  0  0  0
 10 11  1  0  0  0
M  END
> <minimizedAffinity>
10.51482

> <CNNscore>
0.2738274038

> <CNNaffinity>
7.7884893417

> <CNN_VS>
2.1327018738

> <CNNaffinity_variance>
0.4227679372

$$$$
[H]c1nc(N([H])c2c([H])c([H])c(N3C([H])([H])C([H])([H])C([H])(N4C([H])([H])C([H])([H])N(C([H])([H])[H])C([H])([H])C4([H])[H])C([H])([H])C3([H])[H])c([H])c2OC([H])([H])[H])nc(N([H])c2c([H])c([H])c([H])c([H])c2S(=O)(=O)C([H])(C([H])([H])[H])C([H])([H])[H])c1Cl


 44 48  0  0  0  0  0  0  0  0999 V2000
   10.7110   43.3620  135.3490 N   0  0  0  0  0  0  0  0  0  0  0  0
   10.1342   42.4763  135.1164 H   0  0  0  0  0  0  0  0  0  0  0  0
   10.1545   44.5990  134.9288 C   0  0  0  0  0  0  0  0  0  0  0  0
    9.9970   45.6899  135.6826 N   0  0  0  0  0  0  0  0  0  0  0  0
    9.4643   46.8281  135.2207 C   0  0  0  0  0  0  0  0  0  0  0  0
    9.0501   46.9088  133.9118 C   0  0  0  0  0  0  0  0  0  0  0  0
    8.3474   48.3974  133.2867 Cl  0  0  0  0  0  0  0  0  0  0  0  0
    9.2054   45.7702  133.0944 C   0  0  0  0  0  0  0  0  0  0  0  0
    9.7472   44.6834  133.6477 N   0  0  0  0  0  0  0  0  0  0  0  0
    8.7767   45.8795  131.7626 N   0  0  0  0  0  0  0  0  0  0  0  0
    7.8107   46.3308  131.6437 H   0  0  0  0  0  0  0  0  0  0  0  0
    9.3840   45.5050  130.5546 C   0  0  0  0  0  0  0  0  0  0  0  0
    9.5733   44.1709  130.2620 C   0  0  0  0  0  0  0  0  0  0  0  0
   10.1798   43.7808  129.0610 C   0  0  0  0  0  0  0  0  0  0  0  0
   10.5826   44.7398  128.1809 C   0  0  0  0  0  0  0  0  0  0  0  0
   10.3921   46.0709  128.4757 C   0  0  0  0  0  0  0  0  0  0  0  0
    9.8018   46.4805  129.6426 C   0  0  0  0  0  0  0  0  0  0  0  0
    9.5707   48.1427  129.9944 S   0  0  0  0  0  0  0  0  0  0  0  0
   10.2049   48.9881  128.9185 O   0  0  0  0  0  0  0  0  0  0  0  0
   10.1282   48.5879  131.3174 O   0  0  0  0  0  0  0  0  0  0  0  0
    7.8487   48.6035  130.0172 C   0  0  0  0  0  0  0  0  0  0  0  0
    7.6940   50.0877  129.9409 C   0  0  0  0  0  0  0  0  0  0  0  0
    7.0113   47.8222  129.0605 C   0  0  0  0  0  0  0  0  0  0  0  0
   13.1134   43.3764  135.3362 C   0  0  0  0  0  0  0  0  0  0  0  0
   14.3434   43.1714  135.9339 C   0  0  0  0  0  0  0  0  0  0  0  0
   14.4551   42.7172  137.2292 C   0  0  0  0  0  0  0  0  0  0  0  0
   13.2767   42.4794  137.8939 C   0  0  0  0  0  0  0  0  0  0  0  0
   12.0169   42.6758  137.3194 C   0  0  0  0  0  0  0  0  0  0  0  0
   11.9120   43.1285  136.0283 C   0  0  0  0  0  0  0  0  0  0  0  0
   15.7345   42.5171  137.8363 N   0  0  0  0  0  0  0  0  0  0  0  0
   16.3163   43.5959  138.5589 C   0  0  0  0  0  0  0  0  0  0  0  0
   17.4660   43.2411  139.4596 C   0  0  0  0  0  0  0  0  0  0  0  0
   18.4419   42.2821  138.8656 C   0  0  0  0  0  0  0  0  0  0  0  0
   17.9005   41.5667  137.6440 C   0  0  0  0  0  0  0  0  0  0  0  0
   16.4430   41.2642  137.7300 C   0  0  0  0  0  0  0  0  0  0  0  0
   19.0341   41.3383  139.7272 N   0  0  0  0  0  0  0  0  0  0  0  0
   19.1371   41.6225  141.0976 C   0  0  0  0  0  0  0  0  0  0  0  0
   20.1347   40.6598  141.7479 C   0  0  0  0  0  0  0  0  0  0  0  0
   19.8532   39.3278  141.2488 N   0  0  0  0  0  0  0  0  0  0  0  0
   18.6401   38.7600  141.7440 C   0  0  0  0  0  0  0  0  0  0  0  0
   20.0712   39.1926  139.8447 C   0  0  0  0  0  0  0  0  0  0  0  0
   20.1319   40.5827  139.2149 C   0  0  0  0  0  0  0  0  0  0  0  0
   13.0328   45.2244  133.7947 C   0  0  0  0  0  0  0  0  0  0  0  0
   13.0737   43.8352  134.0287 O   0  0  0  0  0  0  0  0  0  0  0  0
 43 44  1  0  0  0
 44 24  1  0  0  0
 24 25  2  0  0  0
 25 26  1  0  0  0
 26 27  2  0  0  0
 27 28  1  0  0  0
 28 29  2  0  0  0
 29  1  1  0  0  0
  1  3  1  0  0  0
  3  4  2  0  0  0
  4  5  1  0  0  0
  5  6  2  0  0  0
  6  7  1  0  0  0
  6  8  1  0  0  0
  8 10  1  0  0  0
 10 12  1  0  0  0
 12 13  2  0  0  0
 13 14  1  0  0  0
 14 15  2  0  0  0
 15 16  1  0  0  0
 16 17  2  0  0  0
 17 18  1  0  0  0
 18 19  2  0  0  0
 18 20  2  0  0  0
 18 21  1  0  0  0
 21 22  1  0  0  0
 21 23  1  0  0  0
  8  9  2  0  0  0
 26 30  1  0  0  0
 30 31  1  0  0  0
 31 32  1  0  0  0
 32 33  1  0  0  0
 33 34  1  0  0  0
 34 35  1  0  0  0
 33 36  1  0  0  0
 36 37  1  0  0  0
 37 38  1  0  0  0
 38 39  1  0  0  0
 39 40  1  0  0  0
 39 41  1  0  0  0
 41 42  1  0  0  0
 29 24  1  0  0  0
  9  3  1  0  0  0
 35 30  1  0  0  0
 42 36  1  0  0  0
 17 12  1  0  0  0
  1  2  1  0  0  0
 10 11  1  0  0  0
M  END
> <minimizedAffinity>
16.57382

> <CNNscore>
0.2700136900

> <CNNaffinity>
7.5213713646

> <CNN_VS>
2.0308732986

> <CNNaffinity_variance>
0.4451032579

$$$$
[H]c1nc(N([H])c2c([H])c([H])c(N3C([H])([H])C([H])([H])C4(C(=O)N([H])C(=O)N4[H])C([H])([H])C3([H])[H])c([H])c2OC([H])([H])[H])nc(N([H])c2c([H])c([H])c([H])c([H])c2S(=O)(=O)C([H])(C([H])([H])[H])C([H])([H])[H])c1Cl


 45 49  0  0  0  0  0  0  0  0999 V2000
    6.9157   48.0702  131.1135 N   0  0  0  0  0  0  0  0  0  0  0  0
    6.0170   47.4796  131.0930 H   0  0  0  0  0  0  0  0  0  0  0  0
    7.9058   47.6441  132.0261 C   0  0  0  0  0  0  0  0  0  0  0  0
    8.4222   48.3332  133.0407 N   0  0  0  0  0  0  0  0  0  0  0  0
    9.3563   47.9082  133.8846 C   0  0  0  0  0  0  0  0  0  0  0  0
    9.8488   46.6306  133.7046 C   0  0  0  0  0  0  0  0  0  0  0  0
   11.0732   46.0310  134.7811 Cl  0  0  0  0  0  0  0  0  0  0  0  0
    9.3518   45.8308  132.6475 C   0  0  0  0  0  0  0  0  0  0  0  0
    8.4247   46.3834  131.8874 N   0  0  0  0  0  0  0  0  0  0  0  0
    9.8819   44.5324  132.5336 N   0  0  0  0  0  0  0  0  0  0  0  0
   10.7558   44.3452  133.1100 H   0  0  0  0  0  0  0  0  0  0  0  0
    9.3670   43.5107  131.7190 C   0  0  0  0  0  0  0  0  0  0  0  0
    8.4263   42.6028  132.1214 C   0  0  0  0  0  0  0  0  0  0  0  0
    7.8881   41.6296  131.2642 C   0  0  0  0  0  0  0  0  0  0  0  0
    8.3141   41.5747  129.9623 C   0  0  0  0  0  0  0  0  0  0  0  0
    9.2500   42.4823  129.5723 C   0  0  0  0  0  0  0  0  0  0  0  0
    9.7940   43.4420  130.3852 C   0  0  0  0  0  0  0  0  0  0  0  0
   11.0286   44.5348  129.8017 S   0  0  0  0  0  0  0  0  0  0  0  0
   11.2969   44.1498  128.3393 O   0  0  0  0  0  0  0  0  0  0  0  0
   10.5806   45.9620  129.7575 O   0  0  0  0  0  0  0  0  0  0  0  0
   12.5635   44.3099  130.6478 C   0  0  0  0  0  0  0  0  0  0  0  0
   13.7294   44.3546  129.6526 C   0  0  0  0  0  0  0  0  0  0  0  0
   12.7960   45.4863  131.5997 C   0  0  0  0  0  0  0  0  0  0  0  0
    7.7696   50.2470  130.6339 C   0  0  0  0  0  0  0  0  0  0  0  0
    7.8821   51.3460  129.8301 C   0  0  0  0  0  0  0  0  0  0  0  0
    7.2291   51.4518  128.5965 C   0  0  0  0  0  0  0  0  0  0  0  0
    6.4627   50.3821  128.2340 C   0  0  0  0  0  0  0  0  0  0  0  0
    6.3450   49.2439  129.0641 C   0  0  0  0  0  0  0  0  0  0  0  0
    6.9832   49.1532  130.2587 C   0  0  0  0  0  0  0  0  0  0  0  0
    7.3717   52.6155  127.7953 N   0  0  0  0  0  0  0  0  0  0  0  0
    7.9390   52.6334  126.4838 C   0  0  0  0  0  0  0  0  0  0  0  0
    6.9014   53.3280  125.5856 C   0  0  0  0  0  0  0  0  0  0  0  0
    6.9363   54.7730  125.9807 C   0  0  0  0  0  0  0  0  0  0  0  0
    6.9919   55.0298  127.4346 C   0  0  0  0  0  0  0  0  0  0  0  0
    6.9105   53.8736  128.3376 C   0  0  0  0  0  0  0  0  0  0  0  0
    8.0949   55.3665  125.2942 N   0  0  0  0  0  0  0  0  0  0  0  0
    7.6693   55.5540  123.9382 C   0  0  0  0  0  0  0  0  0  0  0  0
    8.4285   55.6538  122.9314 O   0  0  0  0  0  0  0  0  0  0  0  0
    6.2385   55.6072  123.9327 N   0  0  0  0  0  0  0  0  0  0  0  0
    5.8236   55.4511  125.2840 C   0  0  0  0  0  0  0  0  0  0  0  0
    4.7389   55.8141  125.7787 O   0  0  0  0  0  0  0  0  0  0  0  0
    9.0223   55.6073  125.6738 H   0  0  0  0  0  0  0  0  0  0  0  0
    5.6263   55.7381  123.0771 H   0  0  0  0  0  0  0  0  0  0  0  0
    9.6104   50.9479  132.0094 C   0  0  0  0  0  0  0  0  0  0  0  0
    8.4316   50.1903  131.8390 O   0  0  0  0  0  0  0  0  0  0  0  0
 44 45  1  0  0  0
 45 24  1  0  0  0
 24 25  2  0  0  0
 25 26  1  0  0  0
 26 27  2  0  0  0
 27 28  1  0  0  0
 28 29  2  0  0  0
 29  1  1  0  0  0
  1  3  1  0  0  0
  3  4  2  0  0  0
  4  5  1  0  0  0
  5  6  2  0  0  0
  6  7  1  0  0  0
  6  8  1  0  0  0
  8 10  1  0  0  0
 10 12  1  0  0  0
 12 13  2  0  0  0
 13 14  1  0  0  0
 14 15  2  0  0  0
 15 16  1  0  0  0
 16 17  2  0  0  0
 17 18  1  0  0  0
 18 19  2  0  0  0
 18 20  2  0  0  0
 18 21  1  0  0  0
 21 22  1  0  0  0
 21 23  1  0  0  0
  8  9  2  0  0  0
 26 30  1  0  0  0
 30 31  1  0  0  0
 31 32  1  0  0  0
 32 33  1  0  0  0
 33 34  1  0  0  0
 34 35  1  0  0  0
 33 36  1  0  0  0
 36 37  1  0  0  0
 37 38  2  0  0  0
 37 39  1  0  0  0
 39 40  1  0  0  0
 40 41  2  0  0  0
 29 24  1  0  0  0
  9  3  1  0  0  0
 35 30  1  0  0  0
 17 12  1  0  0  0
 40 33  1  0  0  0
  1  2  1  0  0  0
 10 11  1  0  0  0
 36 42  1  0  0  0
 39 43  1  0  0  0
M  END
> <minimizedAffinity>
10.05060

> <CNNscore>
0.3660863936

> <CNNaffinity>
7.5930509567

> <CNN_VS>
2.7797126770

> <CNNaffinity_variance>
0.4207328856

$$$$
[H]c1nc(N([H])c2c([H])c([H])c(N3C([H])([H])C([H])([H])C4(C(=O)N([H])C(=O)N4[H])C([H])([H])C3([H])[H])c([H])c2OC([H])([H])[H])nc(N([H])c2c([H])c([H])c([H])c([H])c2S(=O)(=O)C([H])(C([H])([H])[H])C([H])([H])[H])c1Cl


 45 49  0  0  0  0  0  0  0  0999 V2000
    6.9114   48.9700  131.5729 N   0  0  0  0  0  0  0  0  0  0  0  0
    6.5919   49.2862  132.5501 H   0  0  0  0  0  0  0  0  0  0  0  0
    7.2446   47.6030  131.4520 C   0  0  0  0  0  0  0  0  0  0  0  0
    7.3342   46.7020  132.4272 N   0  0  0  0  0  0  0  0  0  0  0  0
    7.6524   45.4198  132.2857 C   0  0  0  0  0  0  0  0  0  0  0  0
    7.9186   44.9628  131.0100 C   0  0  0  0  0  0  0  0  0  0  0  0
    8.3417   43.2946  130.7747 Cl  0  0  0  0  0  0  0  0  0  0  0  0
    7.8449   45.8580  129.9158 C   0  0  0  0  0  0  0  0  0  0  0  0
    7.5170   47.1036  130.2053 N   0  0  0  0  0  0  0  0  0  0  0  0
    8.1079   45.3223  128.6416 N   0  0  0  0  0  0  0  0  0  0  0  0
    7.4412   45.6293  127.8720 H   0  0  0  0  0  0  0  0  0  0  0  0
    9.1404   44.4212  128.3340 C   0  0  0  0  0  0  0  0  0  0  0  0
    8.9458   43.1790  127.7954 C   0  0  0  0  0  0  0  0  0  0  0  0
   10.0033   42.3245  127.4441 C   0  0  0  0  0  0  0  0  0  0  0  0
   11.2944   42.7401  127.6432 C   0  0  0  0  0  0  0  0  0  0  0  0
   11.4768   43.9774  128.1795 C   0  0  0  0  0  0  0  0  0  0  0  0
   10.4661   44.8325  128.5329 C   0  0  0  0  0  0  0  0  0  0  0  0
   10.8027   46.3868  129.2607 S   0  0  0  0  0  0  0  0  0  0  0  0
   11.8432   47.0731  128.3632 O   0  0  0  0  0  0  0  0  0  0  0  0
    9.6205   47.3045  129.2660 O   0  0  0  0  0  0  0  0  0  0  0  0
   11.5673   46.2229  130.8453 C   0  0  0  0  0  0  0  0  0  0  0  0
   10.7190   46.9167  131.9180 C   0  0  0  0  0  0  0  0  0  0  0  0
   11.5981   44.7450  131.2440 C   0  0  0  0  0  0  0  0  0  0  0  0
    8.0619   50.7815  130.5275 C   0  0  0  0  0  0  0  0  0  0  0  0
    8.1676   51.7457  129.5655 C   0  0  0  0  0  0  0  0  0  0  0  0
    7.1922   51.9431  128.5811 C   0  0  0  0  0  0  0  0  0  0  0  0
    6.1139   51.1081  128.6344 C   0  0  0  0  0  0  0  0  0  0  0  0
    6.0025   50.1096  129.6290 C   0  0  0  0  0  0  0  0  0  0  0  0
    6.9553   49.9281  130.5786 C   0  0  0  0  0  0  0  0  0  0  0  0
    7.3418   52.9611  127.6024 N   0  0  0  0  0  0  0  0  0  0  0  0
    8.1631   52.8530  126.4379 C   0  0  0  0  0  0  0  0  0  0  0  0
    7.2526   53.1975  125.2471 C   0  0  0  0  0  0  0  0  0  0  0  0
    7.0104   54.6730  125.3448 C   0  0  0  0  0  0  0  0  0  0  0  0
    6.7260   55.1784  126.7037 C   0  0  0  0  0  0  0  0  0  0  0  0
    6.6134   54.1954  127.7900 C   0  0  0  0  0  0  0  0  0  0  0  0
    8.1967   55.3305  124.7737 N   0  0  0  0  0  0  0  0  0  0  0  0
    8.0426   55.2098  123.3536 C   0  0  0  0  0  0  0  0  0  0  0  0
    8.9751   55.2655  122.5007 O   0  0  0  0  0  0  0  0  0  0  0  0
    6.6506   55.0162  123.0799 N   0  0  0  0  0  0  0  0  0  0  0  0
    5.9873   55.0231  124.3378 C   0  0  0  0  0  0  0  0  0  0  0  0
    4.7845   55.2741  124.5463 O   0  0  0  0  0  0  0  0  0  0  0  0
    8.9835   55.7870  125.2581 H   0  0  0  0  0  0  0  0  0  0  0  0
    6.2189   54.8936  122.1194 H   0  0  0  0  0  0  0  0  0  0  0  0
   10.1265   49.7565  131.2048 C   0  0  0  0  0  0  0  0  0  0  0  0
    9.0482   50.6264  131.4747 O   0  0  0  0  0  0  0  0  0  0  0  0
 44 45  1  0  0  0
 45 24  1  0  0  0
 24 25  2  0  0  0
 25 26  1  0  0  0
 26 27  2  0  0  0
 27 28  1  0  0  0
 28 29  2  0  0  0
 29  1  1  0  0  0
  1  3  1  0  0  0
  3  4  2  0  0  0
  4  5  1  0  0  0
  5  6  2  0  0  0
  6  7  1  0  0  0
  6  8  1  0  0  0
  8 10  1  0  0  0
 10 12  1  0  0  0
 12 13  2  0  0  0
 13 14  1  0  0  0
 14 15  2  0  0  0
 15 16  1  0  0  0
 16 17  2  0  0  0
 17 18  1  0  0  0
 18 19  2  0  0  0
 18 20  2  0  0  0
 18 21  1  0  0  0
 21 22  1  0  0  0
 21 23  1  0  0  0
  8  9  2  0  0  0
 26 30  1  0  0  0
 30 31  1  0  0  0
 31 32  1  0  0  0
 32 33  1  0  0  0
 33 34  1  0  0  0
 34 35  1  0  0  0
 33 36  1  0  0  0
 36 37  1  0  0  0
 37 38  2  0  0  0
 37 39  1  0  0  0
 39 40  1  0  0  0
 40 41  2  0  0  0
 29 24  1  0  0  0
  9  3  1  0  0  0
 35 30  1  0  0  0
 17 12  1  0  0  0
 40 33  1  0  0  0
  1  2  1  0  0  0
 10 11  1  0  0  0
 36 42  1  0  0  0
 39 43  1  0  0  0
M  END
> <minimizedAffinity>
14.94596

> <CNNscore>
0.3646444976

> <CNNaffinity>
7.2877197266

> <CNN_VS>
2.6574268341

> <CNNaffinity_variance>
0.2119943351

$$$$
[H]c1nc(N([H])c2c([H])c([H])c(N3C([H])([H])C([H])([H])C4(C(=O)N([H])C(=O)N4[H])C([H])([H])C3([H])[H])c([H])c2OC([H])([H])[H])nc(N([H])c2c([H])c([H])c([H])c([H])c2S(=O)(=O)C([H])(C([H])([H])[H])C([H])([H])[H])c1Cl


 45 49  0  0  0  0  0  0  0  0999 V2000
    7.0948   45.4466  129.0976 N   0  0  0  0  0  0  0  0  0  0  0  0
    6.4840   44.9118  128.3920 H   0  0  0  0  0  0  0  0  0  0  0  0
    7.6807   44.6623  130.1156 C   0  0  0  0  0  0  0  0  0  0  0  0
    7.9860   43.3680  130.0661 N   0  0  0  0  0  0  0  0  0  0  0  0
    8.5360   42.6525  131.0413 C   0  0  0  0  0  0  0  0  0  0  0  0
    8.8244   43.3000  132.2265 C   0  0  0  0  0  0  0  0  0  0  0  0
    9.5416   42.4062  133.5319 Cl  0  0  0  0  0  0  0  0  0  0  0  0
    8.5307   44.6784  132.3611 C   0  0  0  0  0  0  0  0  0  0  0  0
    7.9849   45.2613  131.3099 N   0  0  0  0  0  0  0  0  0  0  0  0
    8.8689   45.2803  133.5871 N   0  0  0  0  0  0  0  0  0  0  0  0
    8.6354   44.7102  134.4540 H   0  0  0  0  0  0  0  0  0  0  0  0
    9.4507   46.5497  133.7384 C   0  0  0  0  0  0  0  0  0  0  0  0
    8.7489   47.6941  134.0007 C   0  0  0  0  0  0  0  0  0  0  0  0
    9.3660   48.9386  134.2053 C   0  0  0  0  0  0  0  0  0  0  0  0
   10.7327   49.0266  134.1431 C   0  0  0  0  0  0  0  0  0  0  0  0
   11.4212   47.8823  133.8816 C   0  0  0  0  0  0  0  0  0  0  0  0
   10.8475   46.6549  133.6768 C   0  0  0  0  0  0  0  0  0  0  0  0
   11.8175   45.2494  133.2992 S   0  0  0  0  0  0  0  0  0  0  0  0
   13.2684   45.6137  133.6474 O   0  0  0  0  0  0  0  0  0  0  0  0
   11.4940   44.0626  134.1516 O   0  0  0  0  0  0  0  0  0  0  0  0
   11.8138   44.8892  131.5693 C   0  0  0  0  0  0  0  0  0  0  0  0
   11.2075   46.0593  130.7851 C   0  0  0  0  0  0  0  0  0  0  0  0
   13.2569   44.7706  131.0720 C   0  0  0  0  0  0  0  0  0  0  0  0
    6.0668   47.5623  128.6917 C   0  0  0  0  0  0  0  0  0  0  0  0
    6.1263   48.9155  128.5141 C   0  0  0  0  0  0  0  0  0  0  0  0
    7.3289   49.6313  128.5478 C   0  0  0  0  0  0  0  0  0  0  0  0
    8.4555   48.8940  128.7713 C   0  0  0  0  0  0  0  0  0  0  0  0
    8.3961   47.4935  128.9554 C   0  0  0  0  0  0  0  0  0  0  0  0
    7.2236   46.8105  128.9202 C   0  0  0  0  0  0  0  0  0  0  0  0
    7.3439   51.0379  128.3540 N   0  0  0  0  0  0  0  0  0  0  0  0
    8.3429   51.7450  127.6163 C   0  0  0  0  0  0  0  0  0  0  0  0
    7.5822   52.5915  126.5816 C   0  0  0  0  0  0  0  0  0  0  0  0
    6.9193   53.6810  127.3684 C   0  0  0  0  0  0  0  0  0  0  0  0
    6.2828   53.2517  128.6307 C   0  0  0  0  0  0  0  0  0  0  0  0
    6.2751   51.8152  128.9396 C   0  0  0  0  0  0  0  0  0  0  0  0
    7.9483   54.7035  127.6160 N   0  0  0  0  0  0  0  0  0  0  0  0
    8.0718   55.4159  126.3781 C   0  0  0  0  0  0  0  0  0  0  0  0
    9.0780   56.0871  126.0079 O   0  0  0  0  0  0  0  0  0  0  0  0
    6.8569   55.2298  125.6437 N   0  0  0  0  0  0  0  0  0  0  0  0
    6.0203   54.4089  126.4491 C   0  0  0  0  0  0  0  0  0  0  0  0
    4.7784   54.3225  126.3894 O   0  0  0  0  0  0  0  0  0  0  0  0
    8.4822   54.8936  128.4769 H   0  0  0  0  0  0  0  0  0  0  0  0
    6.6426   55.6338  124.6873 H   0  0  0  0  0  0  0  0  0  0  0  0
    4.0491   46.8834  129.8051 C   0  0  0  0  0  0  0  0  0  0  0  0
    4.8595   46.9031  128.6496 O   0  0  0  0  0  0  0  0  0  0  0  0
 44 45  1  0  0  0
 45 24  1  0  0  0
 24 25  2  0  0  0
 25 26  1  0  0  0
 26 27  2  0  0  0
 27 28  1  0  0  0
 28 29  2  0  0  0
 29  1  1  0  0  0
  1  3  1  0  0  0
  3  4  2  0  0  0
  4  5  1  0  0  0
  5  6  2  0  0  0
  6  7  1  0  0  0
  6  8  1  0  0  0
  8 10  1  0  0  0
 10 12  1  0  0  0
 12 13  2  0  0  0
 13 14  1  0  0  0
 14 15  2  0  0  0
 15 16  1  0  0  0
 16 17  2  0  0  0
 17 18  1  0  0  0
 18 19  2  0  0  0
 18 20  2  0  0  0
 18 21  1  0  0  0
 21 22  1  0  0  0
 21 23  1  0  0  0
  8  9  2  0  0  0
 26 30  1  0  0  0
 30 31  1  0  0  0
 31 32  1  0  0  0
 32 33  1  0  0  0
 33 34  1  0  0  0
 34 35  1  0  0  0
 33 36  1  0  0  0
 36 37  1  0  0  0
 37 38  2  0  0  0
 37 39  1  0  0  0
 39 40  1  0  0  0
 40 41  2  0  0  0
 29 24  1  0  0  0
  9  3  1  0  0  0
 35 30  1  0  0  0
 17 12  1  0  0  0
 40 33  1  0  0  0
  1  2  1  0  0  0
 10 11  1  0  0  0
 36 42  1  0  0  0
 39 43  1  0  0  0
M  END
> <minimizedAffinity>
14.62001

> <CNNscore>
0.3259852529

> <CNNaffinity>
7.8960900307

> <CNN_VS>
2.5740089417

> <CNNaffinity_variance>
0.2148144245

$$$$
[H]c1nc(N([H])c2c([H])c([H])c(N3C([H])([H])C([H])([H])C4(C(=O)N([H])C(=O)N4[H])C([H])([H])C3([H])[H])c([H])c2OC([H])([H])[H])nc(N([H])c2c([H])c([H])c([H])c([H])c2S(=O)(=O)C([H])(C([H])([H])[H])C([H])([H])[H])c1Cl


 45 49  0  0  0  0  0  0  0  0999 V2000
    6.4258   48.5860  130.4045 N   0  0  0  0  0  0  0  0  0  0  0  0
    5.7657   48.6320  131.2526 H   0  0  0  0  0  0  0  0  0  0  0  0
    7.0631   47.3435  130.1934 C   0  0  0  0  0  0  0  0  0  0  0  0
    7.1737   46.6744  129.0484 N   0  0  0  0  0  0  0  0  0  0  0  0
    7.7781   45.5035  128.8777 C   0  0  0  0  0  0  0  0  0  0  0  0
    8.3515   44.9111  129.9855 C   0  0  0  0  0  0  0  0  0  0  0  0
    9.1509   43.3786  129.8130 Cl  0  0  0  0  0  0  0  0  0  0  0  0
    8.2783   45.5582  131.2426 C   0  0  0  0  0  0  0  0  0  0  0  0
    7.6466   46.7172  131.2634 N   0  0  0  0  0  0  0  0  0  0  0  0
    8.9008   44.9096  132.3249 N   0  0  0  0  0  0  0  0  0  0  0  0
    8.2551   44.3337  132.9433 H   0  0  0  0  0  0  0  0  0  0  0  0
   10.2657   44.9893  132.6467 C   0  0  0  0  0  0  0  0  0  0  0  0
   10.9650   46.1594  132.7600 C   0  0  0  0  0  0  0  0  0  0  0  0
   12.3154   46.2083  133.1414 C   0  0  0  0  0  0  0  0  0  0  0  0
   12.9763   45.0392  133.4165 C   0  0  0  0  0  0  0  0  0  0  0  0
   12.2715   43.8809  133.3007 C   0  0  0  0  0  0  0  0  0  0  0  0
   10.9547   43.8014  132.9301 C   0  0  0  0  0  0  0  0  0  0  0  0
   10.1484   42.2583  132.7635 S   0  0  0  0  0  0  0  0  0  0  0  0
    9.4967   42.2540  131.3727 O   0  0  0  0  0  0  0  0  0  0  0  0
   11.0919   41.0967  132.7600 O   0  0  0  0  0  0  0  0  0  0  0  0
    8.8220   42.0779  133.9170 C   0  0  0  0  0  0  0  0  0  0  0  0
    7.4840   41.9752  133.1749 C   0  0  0  0  0  0  0  0  0  0  0  0
    8.9756   40.7506  134.6643 C   0  0  0  0  0  0  0  0  0  0  0  0
    7.8531   50.2092  129.3918 C   0  0  0  0  0  0  0  0  0  0  0  0
    8.0567   51.3333  128.6426 C   0  0  0  0  0  0  0  0  0  0  0  0
    7.0063   52.0723  128.0854 C   0  0  0  0  0  0  0  0  0  0  0  0
    5.7493   51.6024  128.3342 C   0  0  0  0  0  0  0  0  0  0  0  0
    5.5364   50.4393  129.1092 C   0  0  0  0  0  0  0  0  0  0  0  0
    6.5635   49.7313  129.6445 C   0  0  0  0  0  0  0  0  0  0  0  0
    7.2646   53.2377  127.3163 N   0  0  0  0  0  0  0  0  0  0  0  0
    8.0835   53.2725  126.1456 C   0  0  0  0  0  0  0  0  0  0  0  0
    7.2233   53.9237  125.0493 C   0  0  0  0  0  0  0  0  0  0  0  0
    7.1250   55.3704  125.4270 C   0  0  0  0  0  0  0  0  0  0  0  0
    6.8771   55.6344  126.8594 C   0  0  0  0  0  0  0  0  0  0  0  0
    6.6580   54.4792  127.7405 C   0  0  0  0  0  0  0  0  0  0  0  0
    8.3756   56.0051  124.9810 N   0  0  0  0  0  0  0  0  0  0  0  0
    8.2252   56.1713  123.5651 C   0  0  0  0  0  0  0  0  0  0  0  0
    9.1675   56.2963  122.7306 O   0  0  0  0  0  0  0  0  0  0  0  0
    6.8239   56.1699  123.2713 N   0  0  0  0  0  0  0  0  0  0  0  0
    6.1514   56.0030  124.5132 C   0  0  0  0  0  0  0  0  0  0  0  0
    4.9767   56.3262  124.7755 O   0  0  0  0  0  0  0  0  0  0  0  0
    9.1980   56.2826  125.5367 H   0  0  0  0  0  0  0  0  0  0  0  0
    6.3923   56.2742  122.3086 H   0  0  0  0  0  0  0  0  0  0  0  0
    9.3375   49.8017  131.2363 C   0  0  0  0  0  0  0  0  0  0  0  0
    8.9192   49.5165  129.9187 O   0  0  0  0  0  0  0  0  0  0  0  0
 44 45  1  0  0  0
 45 24  1  0  0  0
 24 25  2  0  0  0
 25 26  1  0  0  0
 26 27  2  0  0  0
 27 28  1  0  0  0
 28 29  2  0  0  0
 29  1  1  0  0  0
  1  3  1  0  0  0
  3  4  2  0  0  0
  4  5  1  0  0  0
  5  6  2  0  0  0
  6  7  1  0  0  0
  6  8  1  0  0  0
  8 10  1  0  0  0
 10 12  1  0  0  0
 12 13  2  0  0  0
 13 14  1  0  0  0
 14 15  2  0  0  0
 15 16  1  0  0  0
 16 17  2  0  0  0
 17 18  1  0  0  0
 18 19  2  0  0  0
 18 20  2  0  0  0
 18 21  1  0  0  0
 21 22  1  0  0  0
 21 23  1  0  0  0
  8  9  2  0  0  0
 26 30  1  0  0  0
 30 31  1  0  0  0
 31 32  1  0  0  0
 32 33  1  0  0  0
 33 34  1  0  0  0
 34 35  1  0  0  0
 33 36  1  0  0  0
 36 37  1  0  0  0
 37 38  2  0  0  0
 37 39  1  0  0  0
 39 40  1  0  0  0
 40 41  2  0  0  0
 29 24  1  0  0  0
  9  3  1  0  0  0
 35 30  1  0  0  0
 17 12  1  0  0  0
 40 33  1  0  0  0
  1  2  1  0  0  0
 10 11  1  0  0  0
 36 42  1  0  0  0
 39 43  1  0  0  0
M  END
> <minimizedAffinity>
11.77123

> <CNNscore>
0.2814421058

> <CNNaffinity>
7.4580702782

> <CNN_VS>
2.0990149975

> <CNNaffinity_variance>
0.1811262369

$$$$
[H]c1nc(N([H])c2c([H])c([H])c(N3C([H])([H])C([H])([H])C4(C(=O)N([H])C(=O)N4[H])C([H])([H])C3([H])[H])c([H])c2OC([H])([H])[H])nc(N([H])c2c([H])c([H])c([H])c([H])c2S(=O)(=O)C([H])(C([H])([H])[H])C([H])([H])[H])c1Cl


 45 49  0  0  0  0  0  0  0  0999 V2000
    7.0561   49.3197  130.7441 N   0  0  0  0  0  0  0  0  0  0  0  0
    6.1262   48.7865  130.8332 H   0  0  0  0  0  0  0  0  0  0  0  0
    8.1047   48.8612  131.5716 C   0  0  0  0  0  0  0  0  0  0  0  0
    9.1032   49.5760  132.0844 N   0  0  0  0  0  0  0  0  0  0  0  0
   10.0801   49.1180  132.8600 C   0  0  0  0  0  0  0  0  0  0  0  0
   10.0723   47.7730  133.1729 C   0  0  0  0  0  0  0  0  0  0  0  0
   11.3302   47.1268  134.1817 Cl  0  0  0  0  0  0  0  0  0  0  0  0
    9.0436   46.9421  132.6674 C   0  0  0  0  0  0  0  0  0  0  0  0
    8.1390   47.5336  131.9094 N   0  0  0  0  0  0  0  0  0  0  0  0
    9.0844   45.5864  133.0416 N   0  0  0  0  0  0  0  0  0  0  0  0
    8.2341   45.2355  133.5753 H   0  0  0  0  0  0  0  0  0  0  0  0
   10.1466   44.7030  132.7886 C   0  0  0  0  0  0  0  0  0  0  0  0
   11.2382   44.5560  133.5995 C   0  0  0  0  0  0  0  0  0  0  0  0
   12.2554   43.6208  133.3492 C   0  0  0  0  0  0  0  0  0  0  0  0
   12.1640   42.8112  132.2468 C   0  0  0  0  0  0  0  0  0  0  0  0
   11.0742   42.9656  131.4467 C   0  0  0  0  0  0  0  0  0  0  0  0
   10.0671   43.8689  131.6642 C   0  0  0  0  0  0  0  0  0  0  0  0
    8.7284   44.0243  130.5494 S   0  0  0  0  0  0  0  0  0  0  0  0
    8.3275   42.5973  130.1468 O   0  0  0  0  0  0  0  0  0  0  0  0
    7.5044   44.6155  131.1755 O   0  0  0  0  0  0  0  0  0  0  0  0
    9.2062   44.8306  129.0514 C   0  0  0  0  0  0  0  0  0  0  0  0
   10.1983   45.9610  129.3505 C   0  0  0  0  0  0  0  0  0  0  0  0
    9.9695   43.8436  128.1643 C   0  0  0  0  0  0  0  0  0  0  0  0
    7.3444   50.0802  128.4999 C   0  0  0  0  0  0  0  0  0  0  0  0
    7.3969   51.0724  127.5623 C   0  0  0  0  0  0  0  0  0  0  0  0
    7.2157   52.4238  127.8792 C   0  0  0  0  0  0  0  0  0  0  0  0
    6.9799   52.7013  129.1945 C   0  0  0  0  0  0  0  0  0  0  0  0
    6.9251   51.6761  130.1664 C   0  0  0  0  0  0  0  0  0  0  0  0
    7.1027   50.3689  129.8467 C   0  0  0  0  0  0  0  0  0  0  0  0
    7.2828   53.4225  126.8719 N   0  0  0  0  0  0  0  0  0  0  0  0
    8.4527   53.7309  126.1114 C   0  0  0  0  0  0  0  0  0  0  0  0
    8.0282   53.6523  124.6351 C   0  0  0  0  0  0  0  0  0  0  0  0
    7.1595   54.8516  124.4061 C   0  0  0  0  0  0  0  0  0  0  0  0
    6.1804   55.1365  125.4753 C   0  0  0  0  0  0  0  0  0  0  0  0
    6.0865   54.1831  126.5894 C   0  0  0  0  0  0  0  0  0  0  0  0
    8.0665   55.9923  124.2020 N   0  0  0  0  0  0  0  0  0  0  0  0
    8.5472   55.8509  122.8588 C   0  0  0  0  0  0  0  0  0  0  0  0
    9.6157   56.3478  122.3992 O   0  0  0  0  0  0  0  0  0  0  0  0
    7.6034   55.0504  122.1389 N   0  0  0  0  0  0  0  0  0  0  0  0
    6.5691   54.7216  123.0579 C   0  0  0  0  0  0  0  0  0  0  0  0
    5.4003   54.3906  122.7794 O   0  0  0  0  0  0  0  0  0  0  0  0
    8.3223   56.7451  124.8578 H   0  0  0  0  0  0  0  0  0  0  0  0
    7.6793   54.7688  121.1196 H   0  0  0  0  0  0  0  0  0  0  0  0
    6.5405   47.8163  128.4773 C   0  0  0  0  0  0  0  0  0  0  0  0
    7.5293   48.7652  128.1388 O   0  0  0  0  0  0  0  0  0  0  0  0
 44 45  1  0  0  0
 45 24  1  0  0  0
 24 25  2  0  0  0
 25 26  1  0  0  0
 26 27  2  0  0  0
 27 28  1  0  0  0
 28 29  2  0  0  0
 29  1  1  0  0  0
  1  3  1  0  0  0
  3  4  2  0  0  0
  4  5  1  0  0  0
  5  6  2  0  0  0
  6  7  1  0  0  0
  6  8  1  0  0  0
  8 10  1  0  0  0
 10 12  1  0  0  0
 12 13  2  0  0  0
 13 14  1  0  0  0
 14 15  2  0  0  0
 15 16  1  0  0  0
 16 17  2  0  0  0
 17 18  1  0  0  0
 18 19  2  0  0  0
 18 20  2  0  0  0
 18 21  1  0  0  0
 21 22  1  0  0  0
 21 23  1  0  0  0
  8  9  2  0  0  0
 26 30  1  0  0  0
 30 31  1  0  0  0
 31 32  1  0  0  0
 32 33  1  0  0  0
 33 34  1  0  0  0
 34 35  1  0  0  0
 33 36  1  0  0  0
 36 37  1  0  0  0
 37 38  2  0  0  0
 37 39  1  0  0  0
 39 40  1  0  0  0
 40 41  2  0  0  0
 29 24  1  0  0  0
  9  3  1  0  0  0
 35 30  1  0  0  0
 17 12  1  0  0  0
 40 33  1  0  0  0
  1  2  1  0  0  0
 10 11  1  0  0  0
 36 42  1  0  0  0
 39 43  1  0  0  0
M  END
> <minimizedAffinity>
-0.41812

> <CNNscore>
0.2669132352

> <CNNaffinity>
7.6904411316

> <CNN_VS>
2.0526804924

> <CNNaffinity_variance>
0.1058679372

$$$$
[H]c1nc(N([H])c2c([H])c([H])c(N3C([H])([H])C([H])([H])C4(C(=O)N([H])C(=O)N4[H])C([H])([H])C3([H])[H])c([H])c2OC([H])([H])[H])nc(N([H])c2c([H])c([H])c([H])c([H])c2S(=O)(=O)C([H])(C([H])([H])[H])C([H])([H])[H])c1Cl


 45 49  0  0  0  0  0  0  0  0999 V2000
    7.5558   47.1205  129.9372 N   0  0  0  0  0  0  0  0  0  0  0  0
    7.0011   46.9477  130.8424 H   0  0  0  0  0  0  0  0  0  0  0  0
    8.2923   46.0174  129.4523 C   0  0  0  0  0  0  0  0  0  0  0  0
    8.0242   45.2717  128.3832 N   0  0  0  0  0  0  0  0  0  0  0  0
    8.7343   44.2358  127.9495 C   0  0  0  0  0  0  0  0  0  0  0  0
    9.8618   43.8869  128.6665 C   0  0  0  0  0  0  0  0  0  0  0  0
   10.8213   42.5379  128.1402 Cl  0  0  0  0  0  0  0  0  0  0  0  0
   10.2176   44.6301  129.8177 C   0  0  0  0  0  0  0  0  0  0  0  0
    9.4193   45.6337  130.1308 N   0  0  0  0  0  0  0  0  0  0  0  0
   11.3889   44.2338  130.4891 N   0  0  0  0  0  0  0  0  0  0  0  0
   12.0079   43.5499  129.9600 H   0  0  0  0  0  0  0  0  0  0  0  0
   11.7693   44.6470  131.7765 C   0  0  0  0  0  0  0  0  0  0  0  0
   12.6741   45.6404  132.0324 C   0  0  0  0  0  0  0  0  0  0  0  0
   12.9891   46.0707  133.3313 C   0  0  0  0  0  0  0  0  0  0  0  0
   12.3698   45.4785  134.4015 C   0  0  0  0  0  0  0  0  0  0  0  0
   11.4716   44.4914  134.1358 C   0  0  0  0  0  0  0  0  0  0  0  0
   11.1446   44.0498  132.8806 C   0  0  0  0  0  0  0  0  0  0  0  0
   10.0104   42.7396  132.6443 S   0  0  0  0  0  0  0  0  0  0  0  0
    9.3789   42.9528  131.2606 O   0  0  0  0  0  0  0  0  0  0  0  0
   10.6664   41.3963  132.5751 O   0  0  0  0  0  0  0  0  0  0  0  0
    8.6740   42.8062  133.7985 C   0  0  0  0  0  0  0  0  0  0  0  0
    8.1639   44.2458  133.9369 C   0  0  0  0  0  0  0  0  0  0  0  0
    7.4894   42.0058  133.2509 C   0  0  0  0  0  0  0  0  0  0  0  0
    8.6202   49.1871  129.3949 C   0  0  0  0  0  0  0  0  0  0  0  0
    8.6100   50.4404  128.8514 C   0  0  0  0  0  0  0  0  0  0  0  0
    7.4749   50.9948  128.2482 C   0  0  0  0  0  0  0  0  0  0  0  0
    6.3624   50.2042  128.2316 C   0  0  0  0  0  0  0  0  0  0  0  0
    6.3709   48.9069  128.7934 C   0  0  0  0  0  0  0  0  0  0  0  0
    7.4781   48.3804  129.3759 C   0  0  0  0  0  0  0  0  0  0  0  0
    7.5087   52.3040  127.6995 N   0  0  0  0  0  0  0  0  0  0  0  0
    8.0709   52.6371  126.4286 C   0  0  0  0  0  0  0  0  0  0  0  0
    6.9728   53.4014  125.6697 C   0  0  0  0  0  0  0  0  0  0  0  0
    6.8745   54.7343  126.3471 C   0  0  0  0  0  0  0  0  0  0  0  0
    6.9074   54.6970  127.8238 C   0  0  0  0  0  0  0  0  0  0  0  0
    6.9339   53.3800  128.4749 C   0  0  0  0  0  0  0  0  0  0  0  0
    7.9728   55.5563  125.8144 N   0  0  0  0  0  0  0  0  0  0  0  0
    7.5305   55.9738  124.5162 C   0  0  0  0  0  0  0  0  0  0  0  0
    8.2764   56.3426  123.5636 O   0  0  0  0  0  0  0  0  0  0  0  0
    6.1009   55.8972  124.4961 N   0  0  0  0  0  0  0  0  0  0  0  0
    5.7034   55.4352  125.7810 C   0  0  0  0  0  0  0  0  0  0  0  0
    4.5902   55.5914  126.3192 O   0  0  0  0  0  0  0  0  0  0  0  0
    8.8743   55.7988  126.2510 H   0  0  0  0  0  0  0  0  0  0  0  0
    5.4785   56.1417  123.6734 H   0  0  0  0  0  0  0  0  0  0  0  0
   10.3367   49.3783  131.0650 C   0  0  0  0  0  0  0  0  0  0  0  0
    9.7619   48.6859  129.9774 O   0  0  0  0  0  0  0  0  0  0  0  0
 44 45  1  0  0  0
 45 24  1  0  0  0
 24 25  2  0  0  0
 25 26  1  0  0  0
 26 27  2  0  0  0
 27 28  1  0  0  0
 28 29  2  0  0  0
 29  1  1  0  0  0
  1  3  1  0  0  0
  3  4  2  0  0  0
  4  5  1  0  0  0
  5  6  2  0  0  0
  6  7  1  0  0  0
  6  8  1  0  0  0
  8 10  1  0  0  0
 10 12  1  0  0  0
 12 13  2  0  0  0
 13 14  1  0  0  0
 14 15  2  0  0  0
 15 16  1  0  0  0
 16 17  2  0  0  0
 17 18  1  0  0  0
 18 19  2  0  0  0
 18 20  2  0  0  0
 18 21  1  0  0  0
 21 22  1  0  0  0
 21 23  1  0  0  0
  8  9  2  0  0  0
 26 30  1  0  0  0
 30 31  1  0  0  0
 31 32  1  0  0  0
 32 33  1  0  0  0
 33 34  1  0  0  0
 34 35  1  0  0  0
 33 36  1  0  0  0
 36 37  1  0  0  0
 37 38  2  0  0  0
 37 39  1  0  0  0
 39 40  1  0  0  0
 40 41  2  0  0  0
 29 24  1  0  0  0
  9  3  1  0  0  0
 35 30  1  0  0  0
 17 12  1  0  0  0
 40 33  1  0  0  0
  1  2  1  0  0  0
 10 11  1  0  0  0
 36 42  1  0  0  0
 39 43  1  0  0  0
M  END
> <minimizedAffinity>
12.23950

> <CNNscore>
0.2664824724

> <CNNaffinity>
7.4824628830

> <CNN_VS>
1.9939452410

> <CNNaffinity_variance>
0.2205629349

$$$$
[H]c1nc(N([H])c2c([H])c([H])c(N3C([H])([H])C([H])([H])C4(C(=O)N([H])C(=O)N4[H])C([H])([H])C3([H])[H])c([H])c2OC([H])([H])[H])nc(N([H])c2c([H])c([H])c([H])c([H])c2S(=O)(=O)C([H])(C([H])([H])[H])C([H])([H])[H])c1Cl


 45 49  0  0  0  0  0  0  0  0999 V2000
    7.0472   48.4235  130.3459 N   0  0  0  0  0  0  0  0  0  0  0  0
    6.2896   47.7111  130.0708 H   0  0  0  0  0  0  0  0  0  0  0  0
    7.7587   48.1314  131.5304 C   0  0  0  0  0  0  0  0  0  0  0  0
    8.1335   48.9840  132.4809 N   0  0  0  0  0  0  0  0  0  0  0  0
    8.8055   48.6823  133.5867 C   0  0  0  0  0  0  0  0  0  0  0  0
    9.1562   47.3611  133.7829 C   0  0  0  0  0  0  0  0  0  0  0  0
   10.0378   46.9178  135.2124 Cl  0  0  0  0  0  0  0  0  0  0  0  0
    8.7949   46.3899  132.8182 C   0  0  0  0  0  0  0  0  0  0  0  0
    8.1284   46.8336  131.7686 N   0  0  0  0  0  0  0  0  0  0  0  0
    9.1654   45.0601  133.0902 N   0  0  0  0  0  0  0  0  0  0  0  0
    8.3605   44.3960  133.2955 H   0  0  0  0  0  0  0  0  0  0  0  0
   10.4822   44.5735  133.1320 C   0  0  0  0  0  0  0  0  0  0  0  0
   11.2862   44.6165  134.2378 C   0  0  0  0  0  0  0  0  0  0  0  0
   12.5785   44.0677  134.2645 C   0  0  0  0  0  0  0  0  0  0  0  0
   13.0702   43.4576  133.1396 C   0  0  0  0  0  0  0  0  0  0  0  0
   12.2623   43.4204  132.0452 C   0  0  0  0  0  0  0  0  0  0  0  0
   10.9987   43.9474  131.9886 C   0  0  0  0  0  0  0  0  0  0  0  0
   10.0549   43.8910  130.5173 S   0  0  0  0  0  0  0  0  0  0  0  0
    9.7399   45.3473  130.1443 O   0  0  0  0  0  0  0  0  0  0  0  0
   10.8132   43.3407  129.3503 O   0  0  0  0  0  0  0  0  0  0  0  0
    8.4900   43.1087  130.7656 C   0  0  0  0  0  0  0  0  0  0  0  0
    8.3894   41.8400  129.9101 C   0  0  0  0  0  0  0  0  0  0  0  0
    8.3857   42.6305  132.2162 C   0  0  0  0  0  0  0  0  0  0  0  0
    6.2319   50.5032  129.5046 C   0  0  0  0  0  0  0  0  0  0  0  0
    6.3482   51.6102  128.7125 C   0  0  0  0  0  0  0  0  0  0  0  0
    7.4475   51.8290  127.8739 C   0  0  0  0  0  0  0  0  0  0  0  0
    8.4115   50.8630  127.8904 C   0  0  0  0  0  0  0  0  0  0  0  0
    8.2932   49.7167  128.7094 C   0  0  0  0  0  0  0  0  0  0  0  0
    7.2219   49.5156  129.5184 C   0  0  0  0  0  0  0  0  0  0  0  0
    7.5244   52.9929  127.0641 N   0  0  0  0  0  0  0  0  0  0  0  0
    8.5448   53.2413  126.0949 C   0  0  0  0  0  0  0  0  0  0  0  0
    7.8096   53.5625  124.7825 C   0  0  0  0  0  0  0  0  0  0  0  0
    7.2084   54.9200  124.9847 C   0  0  0  0  0  0  0  0  0  0  0  0
    6.5701   55.1394  126.2990 C   0  0  0  0  0  0  0  0  0  0  0  0
    6.5006   54.0006  127.2249 C   0  0  0  0  0  0  0  0  0  0  0  0
    8.2865   55.8941  124.7513 N   0  0  0  0  0  0  0  0  0  0  0  0
    8.4257   55.9621  123.3261 C   0  0  0  0  0  0  0  0  0  0  0  0
    9.4565   56.3446  122.7008 O   0  0  0  0  0  0  0  0  0  0  0  0
    7.1936   55.5211  122.7452 N   0  0  0  0  0  0  0  0  0  0  0  0
    6.3312   55.1943  123.8277 C   0  0  0  0  0  0  0  0  0  0  0  0
    5.0860   55.1489  123.8029 O   0  0  0  0  0  0  0  0  0  0  0  0
    8.8402   56.4279  125.4373 H   0  0  0  0  0  0  0  0  0  0  0  0
    6.9851   55.4580  121.7077 H   0  0  0  0  0  0  0  0  0  0  0  0
    5.1340   50.9035  131.6037 C   0  0  0  0  0  0  0  0  0  0  0  0
    5.1310   50.3329  130.3125 O   0  0  0  0  0  0  0  0  0  0  0  0
 44 45  1  0  0  0
 45 24  1  0  0  0
 24 25  2  0  0  0
 25 26  1  0  0  0
 26 27  2  0  0  0
 27 28  1  0  0  0
 28 29  2  0  0  0
 29  1  1  0  0  0
  1  3  1  0  0  0
  3  4  2  0  0  0
  4  5  1  0  0  0
  5  6  2  0  0  0
  6  7  1  0  0  0
  6  8  1  0  0  0
  8 10  1  0  0  0
 10 12  1  0  0  0
 12 13  2  0  0  0
 13 14  1  0  0  0
 14 15  2  0  0  0
 15 16  1  0  0  0
 16 17  2  0  0  0
 17 18  1  0  0  0
 18 19  2  0  0  0
 18 20  2  0  0  0
 18 21  1  0  0  0
 21 22  1  0  0  0
 21 23  1  0  0  0
  8  9  2  0  0  0
 26 30  1  0  0  0
 30 31  1  0  0  0
 31 32  1  0  0  0
 32 33  1  0  0  0
 33 34  1  0  0  0
 34 35  1  0  0  0
 33 36  1  0  0  0
 36 37  1  0  0  0
 37 38  2  0  0  0
 37 39  1  0  0  0
 39 40  1  0  0  0
 40 41  2  0  0  0
 29 24  1  0  0  0
  9  3  1  0  0  0
 35 30  1  0  0  0
 17 12  1  0  0  0
 40 33  1  0  0  0
  1  2  1  0  0  0
 10 11  1  0  0  0
 36 42  1  0  0  0
 39 43  1  0  0  0
M  END
> <minimizedAffinity>
11.75336

> <CNNscore>
0.2640414834

> <CNNaffinity>
7.4724755287

> <CNN_VS>
1.9730435610

> <CNNaffinity_variance>
0.1979385167

$$$$
[H]c1nc(N([H])c2c([H])c([H])c(N3C([H])([H])C([H])([H])C4(C(=O)N([H])C(=O)N4[H])C([H])([H])C3([H])[H])c([H])c2OC([H])([H])[H])nc(N([H])c2c([H])c([H])c([H])c([H])c2S(=O)(=O)C([H])(C([H])([H])[H])C([H])([H])[H])c1Cl


 45 49  0  0  0  0  0  0  0  0999 V2000
    8.6964   48.8684  130.3448 N   0  0  0  0  0  0  0  0  0  0  0  0
    9.1534   49.3997  129.5288 H   0  0  0  0  0  0  0  0  0  0  0  0
    9.4697   48.7761  131.5229 C   0  0  0  0  0  0  0  0  0  0  0  0
    9.8465   49.7697  132.3240 N   0  0  0  0  0  0  0  0  0  0  0  0
   10.5774   49.6551  133.4277 C   0  0  0  0  0  0  0  0  0  0  0  0
   10.9941   48.3898  133.7916 C   0  0  0  0  0  0  0  0  0  0  0  0
   11.9542   48.1895  135.2252 Cl  0  0  0  0  0  0  0  0  0  0  0  0
   10.6354   47.2775  132.9926 C   0  0  0  0  0  0  0  0  0  0  0  0
    9.9061   47.5408  131.9242 N   0  0  0  0  0  0  0  0  0  0  0  0
   11.0754   46.0152  133.4318 N   0  0  0  0  0  0  0  0  0  0  0  0
   12.0054   46.0113  133.9478 H   0  0  0  0  0  0  0  0  0  0  0  0
   10.4048   44.7995  133.2199 C   0  0  0  0  0  0  0  0  0  0  0  0
    9.3811   44.3365  134.0001 C   0  0  0  0  0  0  0  0  0  0  0  0
    8.6912   43.1444  133.7267 C   0  0  0  0  0  0  0  0  0  0  0  0
    9.0477   42.4006  132.6317 C   0  0  0  0  0  0  0  0  0  0  0  0
   10.0673   42.8701  131.8624 C   0  0  0  0  0  0  0  0  0  0  0  0
   10.7591   44.0279  132.1041 C   0  0  0  0  0  0  0  0  0  0  0  0
   12.0883   44.5234  131.0810 S   0  0  0  0  0  0  0  0  0  0  0  0
   12.9367   45.4995  131.9094 O   0  0  0  0  0  0  0  0  0  0  0  0
   13.0122   43.4001  130.7281 O   0  0  0  0  0  0  0  0  0  0  0  0
   11.5344   45.4404  129.6758 C   0  0  0  0  0  0  0  0  0  0  0  0
   11.9241   44.7153  128.3819 C   0  0  0  0  0  0  0  0  0  0  0  0
   10.0041   45.4871  129.6707 C   0  0  0  0  0  0  0  0  0  0  0  0
    6.4527   49.1908  129.5967 C   0  0  0  0  0  0  0  0  0  0  0  0
    5.1851   48.7386  129.3620 C   0  0  0  0  0  0  0  0  0  0  0  0
    4.7855   47.4264  129.6412 C   0  0  0  0  0  0  0  0  0  0  0  0
    5.7445   46.6106  130.1681 C   0  0  0  0  0  0  0  0  0  0  0  0
    7.0569   47.0765  130.4118 C   0  0  0  0  0  0  0  0  0  0  0  0
    7.4322   48.3517  130.1369 C   0  0  0  0  0  0  0  0  0  0  0  0
    3.4554   47.0007  129.3845 N   0  0  0  0  0  0  0  0  0  0  0  0
    3.0690   46.1545  128.2997 C   0  0  0  0  0  0  0  0  0  0  0  0
    2.2812   44.9940  128.9309 C   0  0  0  0  0  0  0  0  0  0  0  0
    0.9768   45.5888  129.3669 C   0  0  0  0  0  0  0  0  0  0  0  0
    1.0726   46.9056  130.0299 C   0  0  0  0  0  0  0  0  0  0  0  0
    2.4142   47.4497  130.2811 C   0  0  0  0  0  0  0  0  0  0  0  0
    0.1283   45.6615  128.1667 N   0  0  0  0  0  0  0  0  0  0  0  0
   -0.3380   44.3220  127.9578 C   0  0  0  0  0  0  0  0  0  0  0  0
   -0.7484   43.8441  126.8610 O   0  0  0  0  0  0  0  0  0  0  0  0
   -0.2544   43.6301  129.2085 N   0  0  0  0  0  0  0  0  0  0  0  0
    0.2604   44.5619  130.1515 C   0  0  0  0  0  0  0  0  0  0  0  0
    0.1319   44.5187  131.3903 O   0  0  0  0  0  0  0  0  0  0  0  0
   -0.1016   46.4780  127.5815 H   0  0  0  0  0  0  0  0  0  0  0  0
   -0.5280   42.6200  129.3776 H   0  0  0  0  0  0  0  0  0  0  0  0
    6.7881   51.4506  130.3404 C   0  0  0  0  0  0  0  0  0  0  0  0
    6.7974   50.4909  129.3053 O   0  0  0  0  0  0  0  0  0  0  0  0
 44 45  1  0  0  0
 45 24  1  0  0  0
 24 25  2  0  0  0
 25 26  1  0  0  0
 26 27  2  0  0  0
 27 28  1  0  0  0
 28 29  2  0  0  0
 29  1  1  0  0  0
  1  3  1  0  0  0
  3  4  2  0  0  0
  4  5  1  0  0  0
  5  6  2  0  0  0
  6  7  1  0  0  0
  6  8  1  0  0  0
  8 10  1  0  0  0
 10 12  1  0  0  0
 12 13  2  0  0  0
 13 14  1  0  0  0
 14 15  2  0  0  0
 15 16  1  0  0  0
 16 17  2  0  0  0
 17 18  1  0  0  0
 18 19  2  0  0  0
 18 20  2  0  0  0
 18 21  1  0  0  0
 21 22  1  0  0  0
 21 23  1  0  0  0
  8  9  2  0  0  0
 26 30  1  0  0  0
 30 31  1  0  0  0
 31 32  1  0  0  0
 32 33  1  0  0  0
 33 34  1  0  0  0
 34 35  1  0  0  0
 33 36  1  0  0  0
 36 37  1  0  0  0
 37 38  2  0  0  0
 37 39  1  0  0  0
 39 40  1  0  0  0
 40 41  2  0  0  0
 29 24  1  0  0  0
  9  3  1  0  0  0
 35 30  1  0  0  0
 17 12  1  0  0  0
 40 33  1  0  0  0
  1  2  1  0  0  0
 10 11  1  0  0  0
 36 42  1  0  0  0
 39 43  1  0  0  0
M  END
> <minimizedAffinity>
26.09176

> <CNNscore>
0.2561773956

> <CNNaffinity>
8.0363063812

> <CNN_VS>
2.0587201118

> <CNNaffinity_variance>
0.4478886724

$$$$
[H]c1nc(N([H])c2c([H])c([H])c(N3C([H])([H])C([H])([H])C4(C(=O)N([H])C(=O)N4[H])C([H])([H])C3([H])[H])c([H])c2OC([H])([H])[H])nc(N([H])c2c([H])c([H])c([H])c([H])c2S(=O)(=O)C([H])(C([H])([H])[H])C([H])([H])[H])c1Cl


 45 49  0  0  0  0  0  0  0  0999 V2000
    6.5089   46.4372  129.3298 N   0  0  0  0  0  0  0  0  0  0  0  0
    5.5209   46.0120  129.3335 H   0  0  0  0  0  0  0  0  0  0  0  0
    7.5576   45.5483  129.6532 C   0  0  0  0  0  0  0  0  0  0  0  0
    7.7223   44.2997  129.2233 N   0  0  0  0  0  0  0  0  0  0  0  0
    8.7192   43.4826  129.5456 C   0  0  0  0  0  0  0  0  0  0  0  0
    9.6854   43.9604  130.4090 C   0  0  0  0  0  0  0  0  0  0  0  0
   11.0072   42.9285  130.8621 Cl  0  0  0  0  0  0  0  0  0  0  0  0
    9.5842   45.2798  130.9124 C   0  0  0  0  0  0  0  0  0  0  0  0
    8.5400   45.9779  130.5065 N   0  0  0  0  0  0  0  0  0  0  0  0
   10.6129   45.7097  131.7708 N   0  0  0  0  0  0  0  0  0  0  0  0
   11.4480   45.0553  131.8443 H   0  0  0  0  0  0  0  0  0  0  0  0
   10.6000   46.8914  132.5297 C   0  0  0  0  0  0  0  0  0  0  0  0
   11.0459   48.1034  132.0786 C   0  0  0  0  0  0  0  0  0  0  0  0
   10.9648   49.2793  132.8417 C   0  0  0  0  0  0  0  0  0  0  0  0
   10.4161   49.2265  134.0969 C   0  0  0  0  0  0  0  0  0  0  0  0
    9.9758   48.0161  134.5359 C   0  0  0  0  0  0  0  0  0  0  0  0
   10.0423   46.8524  133.8156 C   0  0  0  0  0  0  0  0  0  0  0  0
    9.4915   45.3344  134.4873 S   0  0  0  0  0  0  0  0  0  0  0  0
    9.7404   45.4107  136.0010 O   0  0  0  0  0  0  0  0  0  0  0  0
    8.0170   45.1244  134.3407 O   0  0  0  0  0  0  0  0  0  0  0  0
   10.4528   43.9687  133.9099 C   0  0  0  0  0  0  0  0  0  0  0  0
   11.6511   43.7337  134.8375 C   0  0  0  0  0  0  0  0  0  0  0  0
    9.6173   42.6885  133.9923 C   0  0  0  0  0  0  0  0  0  0  0  0
    7.7898   48.2152  128.3833 C   0  0  0  0  0  0  0  0  0  0  0  0
    7.9602   49.5268  128.0414 C   0  0  0  0  0  0  0  0  0  0  0  0
    6.9939   50.5072  128.2959 C   0  0  0  0  0  0  0  0  0  0  0  0
    5.8554   50.0761  128.9129 C   0  0  0  0  0  0  0  0  0  0  0  0
    5.6770   48.7192  129.2675 C   0  0  0  0  0  0  0  0  0  0  0  0
    6.6218   47.7777  129.0155 C   0  0  0  0  0  0  0  0  0  0  0  0
    7.2155   51.8603  127.9264 N   0  0  0  0  0  0  0  0  0  0  0  0
    8.1196   52.2849  126.9045 C   0  0  0  0  0  0  0  0  0  0  0  0
    7.2989   53.1819  125.9623 C   0  0  0  0  0  0  0  0  0  0  0  0
    7.0512   54.4447  126.7300 C   0  0  0  0  0  0  0  0  0  0  0  0
    6.6686   54.2595  128.1450 C   0  0  0  0  0  0  0  0  0  0  0  0
    6.4761   52.8853  128.6280 C   0  0  0  0  0  0  0  0  0  0  0  0
    8.2766   55.2515  126.6148 N   0  0  0  0  0  0  0  0  0  0  0  0
    8.2266   55.8198  125.2997 C   0  0  0  0  0  0  0  0  0  0  0  0
    9.2190   56.2381  124.6362 O   0  0  0  0  0  0  0  0  0  0  0  0
    6.8582   55.8272  124.8784 N   0  0  0  0  0  0  0  0  0  0  0  0
    6.1047   55.2637  125.9448 C   0  0  0  0  0  0  0  0  0  0  0  0
    4.8901   55.4290  126.1696 O   0  0  0  0  0  0  0  0  0  0  0  0
    9.0261   55.3978  127.3068 H   0  0  0  0  0  0  0  0  0  0  0  0
    6.4978   56.1870  123.9486 H   0  0  0  0  0  0  0  0  0  0  0  0
   10.0987   47.5616  128.5018 C   0  0  0  0  0  0  0  0  0  0  0  0
    8.7699   47.2880  128.1119 O   0  0  0  0  0  0  0  0  0  0  0  0
 44 45  1  0  0  0
 45 24  1  0  0  0
 24 25  2  0  0  0
 25 26  1  0  0  0
 26 27  2  0  0  0
 27 28  1  0  0  0
 28 29  2  0  0  0
 29  1  1  0  0  0
  1  3  1  0  0  0
  3  4  2  0  0  0
  4  5  1  0  0  0
  5  6  2  0  0  0
  6  7  1  0  0  0
  6  8  1  0  0  0
  8 10  1  0  0  0
 10 12  1  0  0  0
 12 13  2  0  0  0
 13 14  1  0  0  0
 14 15  2  0  0  0
 15 16  1  0  0  0
 16 17  2  0  0  0
 17 18  1  0  0  0
 18 19  2  0  0  0
 18 20  2  0  0  0
 18 21  1  0  0  0
 21 22  1  0  0  0
 21 23  1  0  0  0
  8  9  2  0  0  0
 26 30  1  0  0  0
 30 31  1  0  0  0
 31 32  1  0  0  0
 32 33  1  0  0  0
 33 34  1  0  0  0
 34 35  1  0  0  0
 33 36  1  0  0  0
 36 37  1  0  0  0
 37 38  2  0  0  0
 37 39  1  0  0  0
 39 40  1  0  0  0
 40 41  2  0  0  0
 29 24  1  0  0  0
  9  3  1  0  0  0
 35 30  1  0  0  0
 17 12  1  0  0  0
 40 33  1  0  0  0
  1  2  1  0  0  0
 10 11  1  0  0  0
 36 42  1  0  0  0
 39 43  1  0  0  0
M  END
> <minimizedAffinity>
11.89469

> <CNNscore>
0.2431176901

> <CNNaffinity>
7.4326987267

> <CNN_VS>
1.8070205450

> <CNNaffinity_variance>
0.1207180172

$$$$
[H]c1sc(N2C([H])([H])C([H])([H])[C@@]([H])(N([H])C(=O)c3c([H])c(OC([H])([H])[H])c(OC([H])([H])[H])c(OC([H])([H])[H])c3[H])C2([H])[H])nc1-c1c([H])c([H])c([H])c([H])c1[H]


 32 35  0  0  0  0  0  0  0  0999 V2000
    6.9862   52.1108  128.4415 C   0  0  0  0  0  0  0  0  0  0  0  0
    7.1618   52.8221  129.4586 O   0  0  0  0  0  0  0  0  0  0  0  0
    6.9362   50.7067  128.5949 N   0  0  0  0  0  0  0  0  0  0  0  0
    6.7943   50.0620  127.7978 H   0  0  0  0  0  0  0  0  0  0  0  0
    7.7122   53.4193  124.9762 C   0  0  0  0  0  0  0  0  0  0  0  0
    7.8474   52.7942  126.2105 C   0  0  0  0  0  0  0  0  0  0  0  0
    6.8422   52.7645  127.1518 C   0  0  0  0  0  0  0  0  0  0  0  0
    5.6463   53.4054  126.8098 C   0  0  0  0  0  0  0  0  0  0  0  0
    5.4662   54.0331  125.6093 C   0  0  0  0  0  0  0  0  0  0  0  0
    6.5216   54.0223  124.7114 C   0  0  0  0  0  0  0  0  0  0  0  0
    8.7718   54.4543  123.0848 C   0  0  0  0  0  0  0  0  0  0  0  0
    8.7423   53.4293  124.0555 O   0  0  0  0  0  0  0  0  0  0  0  0
    4.2831   54.6519  125.3036 O   0  0  0  0  0  0  0  0  0  0  0  0
    3.0648   54.0034  125.5902 C   0  0  0  0  0  0  0  0  0  0  0  0
    6.3362   54.6585  123.4973 O   0  0  0  0  0  0  0  0  0  0  0  0
    5.3846   54.1023  122.6127 C   0  0  0  0  0  0  0  0  0  0  0  0
    7.0819   50.0666  129.8934 C   0  0  0  0  0  0  0  0  0  0  0  0
    7.5822   51.0345  130.9310 C   0  0  0  0  0  0  0  0  0  0  0  0
    8.9894   50.5649  131.2354 C   0  0  0  0  0  0  0  0  0  0  0  0
    8.9334   49.1698  130.9323 N   0  0  0  0  0  0  0  0  0  0  0  0
    8.1333   48.9876  129.7639 C   0  0  0  0  0  0  0  0  0  0  0  0
    9.5679   48.1307  131.6696 C   0  0  0  0  0  0  0  0  0  0  0  0
    9.6050   46.8318  131.4416 N   0  0  0  0  0  0  0  0  0  0  0  0
   10.2421   46.0355  132.2359 C   0  0  0  0  0  0  0  0  0  0  0  0
   10.8744   46.5969  133.3200 C   0  0  0  0  0  0  0  0  0  0  0  0
   10.5042   48.2519  133.1198 S   0  0  0  0  0  0  0  0  0  0  0  0
   10.3056   44.5620  132.0097 C   0  0  0  0  0  0  0  0  0  0  0  0
   10.0930   43.6679  133.0386 C   0  0  0  0  0  0  0  0  0  0  0  0
   10.1440   42.3013  132.8643 C   0  0  0  0  0  0  0  0  0  0  0  0
   10.4184   41.7721  131.6142 C   0  0  0  0  0  0  0  0  0  0  0  0
   10.6322   42.6585  130.5808 C   0  0  0  0  0  0  0  0  0  0  0  0
   10.5776   44.0402  130.7705 C   0  0  0  0  0  0  0  0  0  0  0  0
 11 12  1  0  0  0
 12  5  1  0  0  0
  5  6  2  0  0  0
  6  7  1  0  0  0
  7  8  2  0  0  0
  8  9  1  0  0  0
  9 13  1  0  0  0
 13 14  1  0  0  0
  9 10  2  0  0  0
 10 15  1  0  0  0
 15 16  1  0  0  0
  7  1  1  0  0  0
  1  2  2  0  0  0
  1  3  1  0  0  0
  3 17  1  0  0  0
 17 18  1  0  0  0
 18 19  1  0  0  0
 19 20  1  0  0  0
 20 21  1  0  0  0
 20 22  1  0  0  0
 22 23  2  0  0  0
 23 24  1  0  0  0
 24 25  2  0  0  0
 25 26  1  0  0  0
 24 27  1  0  0  0
 27 28  2  0  0  0
 28 29  1  0  0  0
 29 30  2  0  0  0
 30 31  1  0  0  0
 31 32  2  0  0  0
 10  5  1  0  0  0
 21 17  1  0  0  0
 26 22  1  0  0  0
 32 27  1  0  0  0
  3  4  1  0  0  0
M  END
> <minimizedAffinity>
7.07862

> <CNNscore>
0.5374422073

> <CNNaffinity>
6.9732995033

> <CNN_VS>
3.7477455139

> <CNNaffinity_variance>
1.1123540401

$$$$
[H]c1sc(N2C([H])([H])C([H])([H])[C@@]([H])(N([H])C(=O)c3c([H])c(OC([H])([H])[H])c(OC([H])([H])[H])c(OC([H])([H])[H])c3[H])C2([H])[H])nc1-c1c([H])c([H])c([H])c([H])c1[H]


 32 35  0  0  0  0  0  0  0  0999 V2000
    9.1657   47.6002  131.6971 C   0  0  0  0  0  0  0  0  0  0  0  0
    9.2249   48.3262  132.7172 O   0  0  0  0  0  0  0  0  0  0  0  0
    8.4930   48.0884  130.5539 N   0  0  0  0  0  0  0  0  0  0  0  0
    8.4070   47.5413  129.6796 H   0  0  0  0  0  0  0  0  0  0  0  0
   10.2728   44.1164  130.7566 C   0  0  0  0  0  0  0  0  0  0  0  0
    9.6749   45.3707  130.7192 C   0  0  0  0  0  0  0  0  0  0  0  0
    9.7922   46.2898  131.7384 C   0  0  0  0  0  0  0  0  0  0  0  0
   10.5571   45.9028  132.8443 C   0  0  0  0  0  0  0  0  0  0  0  0
   11.1638   44.6809  132.9267 C   0  0  0  0  0  0  0  0  0  0  0  0
   11.0020   43.8076  131.8631 C   0  0  0  0  0  0  0  0  0  0  0  0
    9.4168   43.6211  128.5672 C   0  0  0  0  0  0  0  0  0  0  0  0
   10.1339   43.2191  129.7153 O   0  0  0  0  0  0  0  0  0  0  0  0
   11.9066   44.3311  134.0231 O   0  0  0  0  0  0  0  0  0  0  0  0
   11.2565   43.8650  135.1836 C   0  0  0  0  0  0  0  0  0  0  0  0
   11.6173   42.5719  131.9496 O   0  0  0  0  0  0  0  0  0  0  0  0
   10.7959   41.4571  132.2317 C   0  0  0  0  0  0  0  0  0  0  0  0
    7.8705   49.4033  130.5278 C   0  0  0  0  0  0  0  0  0  0  0  0
    6.3802   49.3033  130.3474 C   0  0  0  0  0  0  0  0  0  0  0  0
    6.1331   49.8437  128.9545 C   0  0  0  0  0  0  0  0  0  0  0  0
    7.2330   50.7340  128.7573 N   0  0  0  0  0  0  0  0  0  0  0  0
    8.4043   50.1458  129.3235 C   0  0  0  0  0  0  0  0  0  0  0  0
    7.1756   51.9980  128.1054 C   0  0  0  0  0  0  0  0  0  0  0  0
    7.4009   52.3110  126.8438 N   0  0  0  0  0  0  0  0  0  0  0  0
    7.2976   53.5325  126.4334 C   0  0  0  0  0  0  0  0  0  0  0  0
    6.9454   54.4834  127.3618 C   0  0  0  0  0  0  0  0  0  0  0  0
    6.7853   53.5436  128.7786 S   0  0  0  0  0  0  0  0  0  0  0  0
    7.5447   53.9233  125.0147 C   0  0  0  0  0  0  0  0  0  0  0  0
    8.8249   54.0260  124.5111 C   0  0  0  0  0  0  0  0  0  0  0  0
    9.0886   54.3842  123.2061 C   0  0  0  0  0  0  0  0  0  0  0  0
    8.0446   54.6593  122.3387 C   0  0  0  0  0  0  0  0  0  0  0  0
    6.7624   54.5590  122.8340 C   0  0  0  0  0  0  0  0  0  0  0  0
    6.5089   54.1952  124.1574 C   0  0  0  0  0  0  0  0  0  0  0  0
 11 12  1  0  0  0
 12  5  1  0  0  0
  5  6  2  0  0  0
  6  7  1  0  0  0
  7  8  2  0  0  0
  8  9  1  0  0  0
  9 13  1  0  0  0
 13 14  1  0  0  0
  9 10  2  0  0  0
 10 15  1  0  0  0
 15 16  1  0  0  0
  7  1  1  0  0  0
  1  2  2  0  0  0
  1  3  1  0  0  0
  3 17  1  0  0  0
 17 18  1  0  0  0
 18 19  1  0  0  0
 19 20  1  0  0  0
 20 21  1  0  0  0
 20 22  1  0  0  0
 22 23  2  0  0  0
 23 24  1  0  0  0
 24 25  2  0  0  0
 25 26  1  0  0  0
 24 27  1  0  0  0
 27 28  2  0  0  0
 28 29  1  0  0  0
 29 30  2  0  0  0
 30 31  1  0  0  0
 31 32  2  0  0  0
 10  5  1  0  0  0
 21 17  1  0  0  0
 26 22  1  0  0  0
 32 27  1  0  0  0
  3  4  1  0  0  0
M  END
> <minimizedAffinity>
2.94067

> <CNNscore>
0.4988895953

> <CNNaffinity>
6.8510756493

> <CNN_VS>
3.4179303646

> <CNNaffinity_variance>
0.2305674553

$$$$
[H]c1sc(N2C([H])([H])C([H])([H])[C@@]([H])(N([H])C(=O)c3c([H])c(OC([H])([H])[H])c(OC([H])([H])[H])c(OC([H])([H])[H])c3[H])C2([H])[H])nc1-c1c([H])c([H])c([H])c([H])c1[H]


 32 35  0  0  0  0  0  0  0  0999 V2000
    9.4863   47.1681  130.5420 C   0  0  0  0  0  0  0  0  0  0  0  0
   10.4511   47.7174  131.1240 O   0  0  0  0  0  0  0  0  0  0  0  0
    8.4919   47.9845  129.9570 N   0  0  0  0  0  0  0  0  0  0  0  0
    7.6699   47.5964  129.4622 H   0  0  0  0  0  0  0  0  0  0  0  0
    9.1442   43.5516  131.5672 C   0  0  0  0  0  0  0  0  0  0  0  0
    9.1922   44.9402  131.6080 C   0  0  0  0  0  0  0  0  0  0  0  0
    9.4362   45.7166  130.4966 C   0  0  0  0  0  0  0  0  0  0  0  0
    9.6399   45.0362  129.2911 C   0  0  0  0  0  0  0  0  0  0  0  0
    9.6023   43.6730  129.2013 C   0  0  0  0  0  0  0  0  0  0  0  0
    9.3514   42.9571  130.3609 C   0  0  0  0  0  0  0  0  0  0  0  0
    9.9889   42.4196  133.5105 C   0  0  0  0  0  0  0  0  0  0  0  0
    8.8966   42.8042  132.7025 O   0  0  0  0  0  0  0  0  0  0  0  0
    9.8057   43.0356  128.0061 O   0  0  0  0  0  0  0  0  0  0  0  0
    9.9475   43.7961  126.8278 C   0  0  0  0  0  0  0  0  0  0  0  0
    9.3141   41.5777  130.2667 O   0  0  0  0  0  0  0  0  0  0  0  0
    8.0719   40.9454  130.5004 C   0  0  0  0  0  0  0  0  0  0  0  0
    8.5562   49.4371  130.0106 C   0  0  0  0  0  0  0  0  0  0  0  0
    7.5610   49.9963  130.9907 C   0  0  0  0  0  0  0  0  0  0  0  0
    6.5326   50.6939  130.1253 C   0  0  0  0  0  0  0  0  0  0  0  0
    7.2799   51.0420  128.9584 N   0  0  0  0  0  0  0  0  0  0  0  0
    8.1702   49.9695  128.6490 C   0  0  0  0  0  0  0  0  0  0  0  0
    7.1604   52.2550  128.2233 C   0  0  0  0  0  0  0  0  0  0  0  0
    7.4482   52.5124  126.9619 N   0  0  0  0  0  0  0  0  0  0  0  0
    7.2693   53.6930  126.4669 C   0  0  0  0  0  0  0  0  0  0  0  0
    6.7701   54.6610  127.3059 C   0  0  0  0  0  0  0  0  0  0  0  0
    6.5901   53.7956  128.7670 S   0  0  0  0  0  0  0  0  0  0  0  0
    7.5834   54.0205  125.0454 C   0  0  0  0  0  0  0  0  0  0  0  0
    6.6073   53.9969  124.0708 C   0  0  0  0  0  0  0  0  0  0  0  0
    6.8630   54.2940  122.7490 C   0  0  0  0  0  0  0  0  0  0  0  0
    8.1450   54.6346  122.3509 C   0  0  0  0  0  0  0  0  0  0  0  0
    9.1260   54.6606  123.3185 C   0  0  0  0  0  0  0  0  0  0  0  0
    8.8541   54.3577  124.6535 C   0  0  0  0  0  0  0  0  0  0  0  0
 11 12  1  0  0  0
 12  5  1  0  0  0
  5  6  2  0  0  0
  6  7  1  0  0  0
  7  8  2  0  0  0
  8  9  1  0  0  0
  9 13  1  0  0  0
 13 14  1  0  0  0
  9 10  2  0  0  0
 10 15  1  0  0  0
 15 16  1  0  0  0
  7  1  1  0  0  0
  1  2  2  0  0  0
  1  3  1  0  0  0
  3 17  1  0  0  0
 17 18  1  0  0  0
 18 19  1  0  0  0
 19 20  1  0  0  0
 20 21  1  0  0  0
 20 22  1  0  0  0
 22 23  2  0  0  0
 23 24  1  0  0  0
 24 25  2  0  0  0
 25 26  1  0  0  0
 24 27  1  0  0  0
 27 28  2  0  0  0
 28 29  1  0  0  0
 29 30  2  0  0  0
 30 31  1  0  0  0
 31 32  2  0  0  0
 10  5  1  0  0  0
 21 17  1  0  0  0
 26 22  1  0  0  0
 32 27  1  0  0  0
  3  4  1  0  0  0
M  END
> <minimizedAffinity>
6.02305

> <CNNscore>
0.4850555360

> <CNNaffinity>
6.6557207108

> <CNN_VS>
3.2283942699

> <CNNaffinity_variance>
0.3000077307

$$$$
[H]c1sc(N2C([H])([H])C([H])([H])[C@@]([H])(N([H])C(=O)c3c([H])c(OC([H])([H])[H])c(OC([H])([H])[H])c(OC([H])([H])[H])c3[H])C2([H])[H])nc1-c1c([H])c([H])c([H])c([H])c1[H]


 32 35  0  0  0  0  0  0  0  0999 V2000
    9.4256   47.6313  131.6663 C   0  0  0  0  0  0  0  0  0  0  0  0
    9.4391   48.3082  132.7213 O   0  0  0  0  0  0  0  0  0  0  0  0
    8.7981   48.1712  130.5207 N   0  0  0  0  0  0  0  0  0  0  0  0
    8.7510   47.6660  129.6187 H   0  0  0  0  0  0  0  0  0  0  0  0
   11.2835   44.5433  132.7886 C   0  0  0  0  0  0  0  0  0  0  0  0
   10.6790   45.7950  132.7813 C   0  0  0  0  0  0  0  0  0  0  0  0
   10.0563   46.3223  131.6715 C   0  0  0  0  0  0  0  0  0  0  0  0
   10.0550   45.5286  130.5192 C   0  0  0  0  0  0  0  0  0  0  0  0
   10.6360   44.2922  130.4778 C   0  0  0  0  0  0  0  0  0  0  0  0
   11.2439   43.8265  131.6327 C   0  0  0  0  0  0  0  0  0  0  0  0
   11.1662   44.0050  135.1270 C   0  0  0  0  0  0  0  0  0  0  0  0
   11.8993   44.0456  133.9209 O   0  0  0  0  0  0  0  0  0  0  0  0
   10.6181   43.5387  129.3341 O   0  0  0  0  0  0  0  0  0  0  0  0
    9.4271   43.4366  128.5872 C   0  0  0  0  0  0  0  0  0  0  0  0
   11.8309   42.5750  131.5876 O   0  0  0  0  0  0  0  0  0  0  0  0
   11.1509   41.5165  132.2314 C   0  0  0  0  0  0  0  0  0  0  0  0
    8.1708   49.4841  130.5311 C   0  0  0  0  0  0  0  0  0  0  0  0
    6.6707   49.3777  130.4849 C   0  0  0  0  0  0  0  0  0  0  0  0
    6.2993   49.8972  129.1118 C   0  0  0  0  0  0  0  0  0  0  0  0
    7.3740   50.7873  128.8053 N   0  0  0  0  0  0  0  0  0  0  0  0
    8.5930   50.2104  129.2739 C   0  0  0  0  0  0  0  0  0  0  0  0
    7.2543   52.0416  128.1432 C   0  0  0  0  0  0  0  0  0  0  0  0
    7.4245   52.3472  126.8712 N   0  0  0  0  0  0  0  0  0  0  0  0
    7.2689   53.5602  126.4524 C   0  0  0  0  0  0  0  0  0  0  0  0
    6.9210   54.5103  127.3833 C   0  0  0  0  0  0  0  0  0  0  0  0
    6.8407   53.5820  128.8144 S   0  0  0  0  0  0  0  0  0  0  0  0
    7.4529   53.9425  125.0219 C   0  0  0  0  0  0  0  0  0  0  0  0
    8.7080   54.0131  124.4535 C   0  0  0  0  0  0  0  0  0  0  0  0
    8.9135   54.3626  123.1358 C   0  0  0  0  0  0  0  0  0  0  0  0
    7.8337   54.6614  122.3217 C   0  0  0  0  0  0  0  0  0  0  0  0
    6.5763   54.5933  122.8819 C   0  0  0  0  0  0  0  0  0  0  0  0
    6.3817   54.2380  124.2175 C   0  0  0  0  0  0  0  0  0  0  0  0
 11 12  1  0  0  0
 12  5  1  0  0  0
  5  6  2  0  0  0
  6  7  1  0  0  0
  7  8  2  0  0  0
  8  9  1  0  0  0
  9 13  1  0  0  0
 13 14  1  0  0  0
  9 10  2  0  0  0
 10 15  1  0  0  0
 15 16  1  0  0  0
  7  1  1  0  0  0
  1  2  2  0  0  0
  1  3  1  0  0  0
  3 17  1  0  0  0
 17 18  1  0  0  0
 18 19  1  0  0  0
 19 20  1  0  0  0
 20 21  1  0  0  0
 20 22  1  0  0  0
 22 23  2  0  0  0
 23 24  1  0  0  0
 24 25  2  0  0  0
 25 26  1  0  0  0
 24 27  1  0  0  0
 27 28  2  0  0  0
 28 29  1  0  0  0
 29 30  2  0  0  0
 30 31  1  0  0  0
 31 32  2  0  0  0
 10  5  1  0  0  0
 21 17  1  0  0  0
 26 22  1  0  0  0
 32 27  1  0  0  0
  3  4  1  0  0  0
M  END
> <minimizedAffinity>
3.08282

> <CNNscore>
0.4601673186

> <CNNaffinity>
6.7793731689

> <CNN_VS>
3.1196460724

> <CNNaffinity_variance>
0.1596185416

$$$$
[H]c1sc(N2C([H])([H])C([H])([H])[C@@]([H])(N([H])C(=O)c3c([H])c(OC([H])([H])[H])c(OC([H])([H])[H])c(OC([H])([H])[H])c3[H])C2([H])[H])nc1-c1c([H])c([H])c([H])c([H])c1[H]


 32 35  0  0  0  0  0  0  0  0999 V2000
    8.4798   47.7090  130.6095 C   0  0  0  0  0  0  0  0  0  0  0  0
    8.8968   48.1470  129.5115 O   0  0  0  0  0  0  0  0  0  0  0  0
    7.3026   48.2649  131.1597 N   0  0  0  0  0  0  0  0  0  0  0  0
    6.9043   47.9500  132.0616 H   0  0  0  0  0  0  0  0  0  0  0  0
   10.7123   44.7233  131.2004 C   0  0  0  0  0  0  0  0  0  0  0  0
    9.9965   45.7380  130.5756 C   0  0  0  0  0  0  0  0  0  0  0  0
    9.2275   46.6495  131.2650 C   0  0  0  0  0  0  0  0  0  0  0  0
    9.1926   46.5119  132.6570 C   0  0  0  0  0  0  0  0  0  0  0  0
    9.8790   45.5308  133.3159 C   0  0  0  0  0  0  0  0  0  0  0  0
   10.6321   44.6496  132.5567 C   0  0  0  0  0  0  0  0  0  0  0  0
   11.2217   43.6853  129.0946 C   0  0  0  0  0  0  0  0  0  0  0  0
   11.4740   43.8261  130.4767 O   0  0  0  0  0  0  0  0  0  0  0  0
    9.8248   45.4221  134.6803 O   0  0  0  0  0  0  0  0  0  0  0  0
    9.6318   46.5784  135.4629 C   0  0  0  0  0  0  0  0  0  0  0  0
   11.3256   43.6579  133.2265 O   0  0  0  0  0  0  0  0  0  0  0  0
   12.4618   44.0504  133.9697 C   0  0  0  0  0  0  0  0  0  0  0  0
    6.5645   49.3256  130.4910 C   0  0  0  0  0  0  0  0  0  0  0  0
    5.8847   48.8229  129.2464 C   0  0  0  0  0  0  0  0  0  0  0  0
    6.6407   49.4833  128.1125 C   0  0  0  0  0  0  0  0  0  0  0  0
    7.1436   50.6767  128.7159 N   0  0  0  0  0  0  0  0  0  0  0  0
    7.5588   50.3753  130.0483 C   0  0  0  0  0  0  0  0  0  0  0  0
    7.2199   51.9557  128.0960 C   0  0  0  0  0  0  0  0  0  0  0  0
    7.4298   52.2732  126.8329 N   0  0  0  0  0  0  0  0  0  0  0  0
    7.4655   53.5089  126.4552 C   0  0  0  0  0  0  0  0  0  0  0  0
    7.2766   54.4702  127.4198 C   0  0  0  0  0  0  0  0  0  0  0  0
    7.0581   53.5187  128.8209 S   0  0  0  0  0  0  0  0  0  0  0  0
    7.7002   53.9052  125.0359 C   0  0  0  0  0  0  0  0  0  0  0  0
    6.6781   53.8955  124.1095 C   0  0  0  0  0  0  0  0  0  0  0  0
    6.8603   54.2556  122.7912 C   0  0  0  0  0  0  0  0  0  0  0  0
    8.1117   54.6487  122.3469 C   0  0  0  0  0  0  0  0  0  0  0  0
    9.1384   54.6612  123.2662 C   0  0  0  0  0  0  0  0  0  0  0  0
    8.9408   54.2943  124.5983 C   0  0  0  0  0  0  0  0  0  0  0  0
 11 12  1  0  0  0
 12  5  1  0  0  0
  5  6  2  0  0  0
  6  7  1  0  0  0
  7  8  2  0  0  0
  8  9  1  0  0  0
  9 13  1  0  0  0
 13 14  1  0  0  0
  9 10  2  0  0  0
 10 15  1  0  0  0
 15 16  1  0  0  0
  7  1  1  0  0  0
  1  2  2  0  0  0
  1  3  1  0  0  0
  3 17  1  0  0  0
 17 18  1  0  0  0
 18 19  1  0  0  0
 19 20  1  0  0  0
 20 21  1  0  0  0
 20 22  1  0  0  0
 22 23  2  0  0  0
 23 24  1  0  0  0
 24 25  2  0  0  0
 25 26  1  0  0  0
 24 27  1  0  0  0
 27 28  2  0  0  0
 28 29  1  0  0  0
 29 30  2  0  0  0
 30 31  1  0  0  0
 31 32  2  0  0  0
 10  5  1  0  0  0
 21 17  1  0  0  0
 26 22  1  0  0  0
 32 27  1  0  0  0
  3  4  1  0  0  0
M  END
> <minimizedAffinity>
3.04091

> <CNNscore>
0.4308395982

> <CNNaffinity>
6.8662996292

> <CNN_VS>
2.9582738876

> <CNNaffinity_variance>
0.2392593920

$$$$
[H]c1sc(N2C([H])([H])C([H])([H])[C@@]([H])(N([H])C(=O)c3c([H])c(OC([H])([H])[H])c(OC([H])([H])[H])c(OC([H])([H])[H])c3[H])C2([H])[H])nc1-c1c([H])c([H])c([H])c([H])c1[H]


 32 35  0  0  0  0  0  0  0  0999 V2000
    9.3505   48.0243  131.8837 C   0  0  0  0  0  0  0  0  0  0  0  0
    9.5078   48.8308  132.8303 O   0  0  0  0  0  0  0  0  0  0  0  0
    8.5670   48.4210  130.7763 N   0  0  0  0  0  0  0  0  0  0  0  0
    8.3969   47.8048  129.9624 H   0  0  0  0  0  0  0  0  0  0  0  0
   10.6292   44.7337  133.2195 C   0  0  0  0  0  0  0  0  0  0  0  0
   10.0255   45.9829  133.1341 C   0  0  0  0  0  0  0  0  0  0  0  0
    9.9818   46.7184  131.9702 C   0  0  0  0  0  0  0  0  0  0  0  0
   10.5851   46.1452  130.8454 C   0  0  0  0  0  0  0  0  0  0  0  0
   11.1908   44.9205  130.8803 C   0  0  0  0  0  0  0  0  0  0  0  0
   11.1959   44.2379  132.0861 C   0  0  0  0  0  0  0  0  0  0  0  0
   11.8989   43.7983  135.0318 C   0  0  0  0  0  0  0  0  0  0  0  0
   10.6542   44.0234  134.4043 O   0  0  0  0  0  0  0  0  0  0  0  0
   11.7729   44.3858  129.7616 O   0  0  0  0  0  0  0  0  0  0  0  0
   10.9920   44.1656  128.6090 C   0  0  0  0  0  0  0  0  0  0  0  0
   11.8097   42.9988  132.1181 O   0  0  0  0  0  0  0  0  0  0  0  0
   10.9945   41.8658  131.8965 C   0  0  0  0  0  0  0  0  0  0  0  0
    7.9411   49.7326  130.7042 C   0  0  0  0  0  0  0  0  0  0  0  0
    6.4478   49.6226  130.5578 C   0  0  0  0  0  0  0  0  0  0  0  0
    6.1722   50.1003  129.1475 C   0  0  0  0  0  0  0  0  0  0  0  0
    7.2660   50.9825  128.8894 N   0  0  0  0  0  0  0  0  0  0  0  0
    8.4495   50.4217  129.4579 C   0  0  0  0  0  0  0  0  0  0  0  0
    7.1929   52.2163  128.1834 C   0  0  0  0  0  0  0  0  0  0  0  0
    7.4436   52.4826  126.9159 N   0  0  0  0  0  0  0  0  0  0  0  0
    7.3193   53.6826  126.4516 C   0  0  0  0  0  0  0  0  0  0  0  0
    6.9177   54.6614  127.3297 C   0  0  0  0  0  0  0  0  0  0  0  0
    6.7444   53.7773  128.7804 S   0  0  0  0  0  0  0  0  0  0  0  0
    7.5940   54.0208  125.0245 C   0  0  0  0  0  0  0  0  0  0  0  0
    6.5682   54.2257  124.1251 C   0  0  0  0  0  0  0  0  0  0  0  0
    6.7866   54.5395  122.8005 C   0  0  0  0  0  0  0  0  0  0  0  0
    8.0803   54.6612  122.3215 C   0  0  0  0  0  0  0  0  0  0  0  0
    9.1110   54.4580  123.2136 C   0  0  0  0  0  0  0  0  0  0  0  0
    8.8764   54.1408  124.5524 C   0  0  0  0  0  0  0  0  0  0  0  0
 11 12  1  0  0  0
 12  5  1  0  0  0
  5  6  2  0  0  0
  6  7  1  0  0  0
  7  8  2  0  0  0
  8  9  1  0  0  0
  9 13  1  0  0  0
 13 14  1  0  0  0
  9 10  2  0  0  0
 10 15  1  0  0  0
 15 16  1  0  0  0
  7  1  1  0  0  0
  1  2  2  0  0  0
  1  3  1  0  0  0
  3 17  1  0  0  0
 17 18  1  0  0  0
 18 19  1  0  0  0
 19 20  1  0  0  0
 20 21  1  0  0  0
 20 22  1  0  0  0
 22 23  2  0  0  0
 23 24  1  0  0  0
 24 25  2  0  0  0
 25 26  1  0  0  0
 24 27  1  0  0  0
 27 28  2  0  0  0
 28 29  1  0  0  0
 29 30  2  0  0  0
 30 31  1  0  0  0
 31 32  2  0  0  0
 10  5  1  0  0  0
 21 17  1  0  0  0
 26 22  1  0  0  0
 32 27  1  0  0  0
  3  4  1  0  0  0
M  END
> <minimizedAffinity>
2.37655

> <CNNscore>
0.4108386040

> <CNNaffinity>
6.6948118210

> <CNN_VS>
2.7504870892

> <CNNaffinity_variance>
0.1082637310

$$$$
[H]c1sc(N2C([H])([H])C([H])([H])[C@@]([H])(N([H])C(=O)c3c([H])c(OC([H])([H])[H])c(OC([H])([H])[H])c(OC([H])([H])[H])c3[H])C2([H])[H])nc1-c1c([H])c([H])c([H])c([H])c1[H]


 32 35  0  0  0  0  0  0  0  0999 V2000
    6.9573   50.8793  129.0998 C   0  0  0  0  0  0  0  0  0  0  0  0
    6.9173   49.6637  128.7965 O   0  0  0  0  0  0  0  0  0  0  0  0
    7.4507   51.2460  130.3726 N   0  0  0  0  0  0  0  0  0  0  0  0
    7.5107   52.2303  130.6865 H   0  0  0  0  0  0  0  0  0  0  0  0
    4.7140   53.0085  126.9360 C   0  0  0  0  0  0  0  0  0  0  0  0
    5.1598   52.0764  127.8661 C   0  0  0  0  0  0  0  0  0  0  0  0
    6.4939   51.8546  128.1275 C   0  0  0  0  0  0  0  0  0  0  0  0
    7.4096   52.6241  127.4014 C   0  0  0  0  0  0  0  0  0  0  0  0
    7.0196   53.5521  126.4770 C   0  0  0  0  0  0  0  0  0  0  0  0
    5.6605   53.7211  126.2668 C   0  0  0  0  0  0  0  0  0  0  0  0
    2.5292   52.0742  126.5825 C   0  0  0  0  0  0  0  0  0  0  0  0
    3.3671   53.2048  126.6994 O   0  0  0  0  0  0  0  0  0  0  0  0
    7.9405   54.2903  125.7819 O   0  0  0  0  0  0  0  0  0  0  0  0
    8.5687   53.7316  124.6505 C   0  0  0  0  0  0  0  0  0  0  0  0
    5.2690   54.6611  125.3307 O   0  0  0  0  0  0  0  0  0  0  0  0
    5.1482   54.2298  123.9903 C   0  0  0  0  0  0  0  0  0  0  0  0
    7.9114   50.2574  131.3356 C   0  0  0  0  0  0  0  0  0  0  0  0
    9.0640   50.7783  132.1504 C   0  0  0  0  0  0  0  0  0  0  0  0
   10.2528   49.9651  131.6824 C   0  0  0  0  0  0  0  0  0  0  0  0
    9.6514   48.7497  131.2325 N   0  0  0  0  0  0  0  0  0  0  0  0
    8.4294   49.0643  130.5646 C   0  0  0  0  0  0  0  0  0  0  0  0
   10.1791   47.4407  131.4170 C   0  0  0  0  0  0  0  0  0  0  0  0
    9.9392   46.3291  130.7483 N   0  0  0  0  0  0  0  0  0  0  0  0
   10.5231   45.2213  131.0691 C   0  0  0  0  0  0  0  0  0  0  0  0
   11.3979   45.2520  132.1292 C   0  0  0  0  0  0  0  0  0  0  0  0
   11.3195   46.8924  132.5974 S   0  0  0  0  0  0  0  0  0  0  0  0
   10.2763   43.9454  130.3358 C   0  0  0  0  0  0  0  0  0  0  0  0
   10.2495   43.9035  128.9571 C   0  0  0  0  0  0  0  0  0  0  0  0
   10.0246   42.7425  128.2485 C   0  0  0  0  0  0  0  0  0  0  0  0
    9.8130   41.5504  128.9209 C   0  0  0  0  0  0  0  0  0  0  0  0
    9.8382   41.5836  130.2984 C   0  0  0  0  0  0  0  0  0  0  0  0
   10.0670   42.7659  131.0041 C   0  0  0  0  0  0  0  0  0  0  0  0
 11 12  1  0  0  0
 12  5  1  0  0  0
  5  6  2  0  0  0
  6  7  1  0  0  0
  7  8  2  0  0  0
  8  9  1  0  0  0
  9 13  1  0  0  0
 13 14  1  0  0  0
  9 10  2  0  0  0
 10 15  1  0  0  0
 15 16  1  0  0  0
  7  1  1  0  0  0
  1  2  2  0  0  0
  1  3  1  0  0  0
  3 17  1  0  0  0
 17 18  1  0  0  0
 18 19  1  0  0  0
 19 20  1  0  0  0
 20 21  1  0  0  0
 20 22  1  0  0  0
 22 23  2  0  0  0
 23 24  1  0  0  0
 24 25  2  0  0  0
 25 26  1  0  0  0
 24 27  1  0  0  0
 27 28  2  0  0  0
 28 29  1  0  0  0
 29 30  2  0  0  0
 30 31  1  0  0  0
 31 32  2  0  0  0
 10  5  1  0  0  0
 21 17  1  0  0  0
 26 22  1  0  0  0
 32 27  1  0  0  0
  3  4  1  0  0  0
M  END
> <minimizedAffinity>
19.39210

> <CNNscore>
0.3888482153

> <CNNaffinity>
6.4724149704

> <CNN_VS>
2.5167870522

> <CNNaffinity_variance>
1.0463006496

$$$$
[H]c1sc(N2C([H])([H])C([H])([H])[C@@]([H])(N([H])C(=O)c3c([H])c(OC([H])([H])[H])c(OC([H])([H])[H])c(OC([H])([H])[H])c3[H])C2([H])[H])nc1-c1c([H])c([H])c([H])c([H])c1[H]


 32 35  0  0  0  0  0  0  0  0999 V2000
    9.0487   46.1683  130.1232 C   0  0  0  0  0  0  0  0  0  0  0  0
    9.4311   46.2334  128.9313 O   0  0  0  0  0  0  0  0  0  0  0  0
    8.5293   44.9450  130.6042 N   0  0  0  0  0  0  0  0  0  0  0  0
    8.1961   44.8228  131.5764 H   0  0  0  0  0  0  0  0  0  0  0  0
    9.9372   48.5030  132.9530 C   0  0  0  0  0  0  0  0  0  0  0  0
    9.8320   47.3692  132.1557 C   0  0  0  0  0  0  0  0  0  0  0  0
    9.1577   47.3551  130.9546 C   0  0  0  0  0  0  0  0  0  0  0  0
    8.5657   48.5585  130.5558 C   0  0  0  0  0  0  0  0  0  0  0  0
    8.6419   49.6988  131.3054 C   0  0  0  0  0  0  0  0  0  0  0  0
    9.3369   49.6381  132.5026 C   0  0  0  0  0  0  0  0  0  0  0  0
   10.9952   47.2319  134.6954 C   0  0  0  0  0  0  0  0  0  0  0  0
   10.6220   48.4808  134.1527 O   0  0  0  0  0  0  0  0  0  0  0  0
    8.0515   50.8621  130.8879 O   0  0  0  0  0  0  0  0  0  0  0  0
    7.0660   50.8194  129.8810 C   0  0  0  0  0  0  0  0  0  0  0  0
    9.4122   50.7937  133.2589 O   0  0  0  0  0  0  0  0  0  0  0  0
   10.6269   51.5152  133.2210 C   0  0  0  0  0  0  0  0  0  0  0  0
    8.4267   43.7649  129.7593 C   0  0  0  0  0  0  0  0  0  0  0  0
    7.3180   42.8560  130.2156 C   0  0  0  0  0  0  0  0  0  0  0  0
    8.0321   41.6382  130.7637 C   0  0  0  0  0  0  0  0  0  0  0  0
    9.2623   41.6351  130.0373 N   0  0  0  0  0  0  0  0  0  0  0  0
    9.7133   42.9824  129.8964 C   0  0  0  0  0  0  0  0  0  0  0  0
    9.9310   40.4831  129.5355 C   0  0  0  0  0  0  0  0  0  0  0  0
   10.6540   40.3329  128.4423 N   0  0  0  0  0  0  0  0  0  0  0  0
   11.1889   39.1928  128.1507 C   0  0  0  0  0  0  0  0  0  0  0  0
   10.9731   38.1520  129.0227 C   0  0  0  0  0  0  0  0  0  0  0  0
   10.0036   38.8941  130.2167 S   0  0  0  0  0  0  0  0  0  0  0  0
   12.0124   38.9859  126.9237 C   0  0  0  0  0  0  0  0  0  0  0  0
   11.8887   39.8150  125.8280 C   0  0  0  0  0  0  0  0  0  0  0  0
   12.6335   39.6523  124.6793 C   0  0  0  0  0  0  0  0  0  0  0  0
   13.5542   38.6215  124.5907 C   0  0  0  0  0  0  0  0  0  0  0  0
   13.6840   37.7886  125.6810 C   0  0  0  0  0  0  0  0  0  0  0  0
   12.9237   37.9641  126.8383 C   0  0  0  0  0  0  0  0  0  0  0  0
 11 12  1  0  0  0
 12  5  1  0  0  0
  5  6  2  0  0  0
  6  7  1  0  0  0
  7  8  2  0  0  0
  8  9  1  0  0  0
  9 13  1  0  0  0
 13 14  1  0  0  0
  9 10  2  0  0  0
 10 15  1  0  0  0
 15 16  1  0  0  0
  7  1  1  0  0  0
  1  2  2  0  0  0
  1  3  1  0  0  0
  3 17  1  0  0  0
 17 18  1  0  0  0
 18 19  1  0  0  0
 19 20  1  0  0  0
 20 21  1  0  0  0
 20 22  1  0  0  0
 22 23  2  0  0  0
 23 24  1  0  0  0
 24 25  2  0  0  0
 25 26  1  0  0  0
 24 27  1  0  0  0
 27 28  2  0  0  0
 28 29  1  0  0  0
 29 30  2  0  0  0
 30 31  1  0  0  0
 31 32  2  0  0  0
 10  5  1  0  0  0
 21 17  1  0  0  0
 26 22  1  0  0  0
 32 27  1  0  0  0
  3  4  1  0  0  0
M  END
> <minimizedAffinity>
35.00481

> <CNNscore>
0.3550932705

> <CNNaffinity>
6.3723402023

> <CNN_VS>
2.2627751827

> <CNNaffinity_variance>
0.9049760699

$$$$
[H]c1sc(N2C([H])([H])C([H])([H])[C@@]([H])(N([H])C(=O)c3c([H])c(OC([H])([H])[H])c(OC([H])([H])[H])c(OC([H])([H])[H])c3[H])C2([H])[H])nc1-c1c([H])c([H])c([H])c([H])c1[H]


 32 35  0  0  0  0  0  0  0  0999 V2000
    9.1903   47.7335  131.7630 C   0  0  0  0  0  0  0  0  0  0  0  0
    9.3477   48.5020  132.7407 O   0  0  0  0  0  0  0  0  0  0  0  0
    8.4436   48.1902  130.6533 N   0  0  0  0  0  0  0  0  0  0  0  0
    8.2756   47.6076  129.8145 H   0  0  0  0  0  0  0  0  0  0  0  0
   11.6282   44.8723  131.4202 C   0  0  0  0  0  0  0  0  0  0  0  0
   11.0585   46.1393  131.3698 C   0  0  0  0  0  0  0  0  0  0  0  0
    9.7838   46.4083  131.8172 C   0  0  0  0  0  0  0  0  0  0  0  0
    9.0633   45.3281  132.3387 C   0  0  0  0  0  0  0  0  0  0  0  0
    9.5806   44.0651  132.4089 C   0  0  0  0  0  0  0  0  0  0  0  0
   10.8698   43.8693  131.9400 C   0  0  0  0  0  0  0  0  0  0  0  0
   13.1421   44.6407  129.5693 C   0  0  0  0  0  0  0  0  0  0  0  0
   12.9107   44.6387  130.9622 O   0  0  0  0  0  0  0  0  0  0  0  0
    8.8501   43.0278  132.9252 O   0  0  0  0  0  0  0  0  0  0  0  0
    9.1790   42.5094  134.1940 C   0  0  0  0  0  0  0  0  0  0  0  0
   11.3904   42.5900  132.0125 O   0  0  0  0  0  0  0  0  0  0  0  0
   10.6665   41.5583  131.3730 C   0  0  0  0  0  0  0  0  0  0  0  0
    7.8555   49.5205  130.6137 C   0  0  0  0  0  0  0  0  0  0  0  0
    6.3628   49.4573  130.4363 C   0  0  0  0  0  0  0  0  0  0  0  0
    6.1277   49.9889  129.0379 C   0  0  0  0  0  0  0  0  0  0  0  0
    7.2501   50.8481  128.8298 N   0  0  0  0  0  0  0  0  0  0  0  0
    8.4066   50.2359  129.4008 C   0  0  0  0  0  0  0  0  0  0  0  0
    7.2245   52.1061  128.1644 C   0  0  0  0  0  0  0  0  0  0  0  0
    7.3995   52.3929  126.8886 N   0  0  0  0  0  0  0  0  0  0  0  0
    7.3386   53.6134  126.4673 C   0  0  0  0  0  0  0  0  0  0  0  0
    7.0855   54.5918  127.3995 C   0  0  0  0  0  0  0  0  0  0  0  0
    6.9509   53.6775  128.8355 S   0  0  0  0  0  0  0  0  0  0  0  0
    7.5312   53.9750  125.0325 C   0  0  0  0  0  0  0  0  0  0  0  0
    8.7823   54.2596  124.5257 C   0  0  0  0  0  0  0  0  0  0  0  0
    8.9956   54.5968  123.2060 C   0  0  0  0  0  0  0  0  0  0  0  0
    7.9280   54.6612  122.3261 C   0  0  0  0  0  0  0  0  0  0  0  0
    6.6746   54.3783  122.8245 C   0  0  0  0  0  0  0  0  0  0  0  0
    6.4722   54.0381  124.1629 C   0  0  0  0  0  0  0  0  0  0  0  0
 11 12  1  0  0  0
 12  5  1  0  0  0
  5  6  2  0  0  0
  6  7  1  0  0  0
  7  8  2  0  0  0
  8  9  1  0  0  0
  9 13  1  0  0  0
 13 14  1  0  0  0
  9 10  2  0  0  0
 10 15  1  0  0  0
 15 16  1  0  0  0
  7  1  1  0  0  0
  1  2  2  0  0  0
  1  3  1  0  0  0
  3 17  1  0  0  0
 17 18  1  0  0  0
 18 19  1  0  0  0
 19 20  1  0  0  0
 20 21  1  0  0  0
 20 22  1  0  0  0
 22 23  2  0  0  0
 23 24  1  0  0  0
 24 25  2  0  0  0
 25 26  1  0  0  0
 24 27  1  0  0  0
 27 28  2  0  0  0
 28 29  1  0  0  0
 29 30  2  0  0  0
 30 31  1  0  0  0
 31 32  2  0  0  0
 10  5  1  0  0  0
 21 17  1  0  0  0
 26 22  1  0  0  0
 32 27  1  0  0  0
  3  4  1  0  0  0
M  END
> <minimizedAffinity>
3.59536

> <CNNscore>
0.3310148716

> <CNNaffinity>
6.5790586472

> <CNN_VS>
2.1777663231

> <CNNaffinity_variance>
0.2587835491

$$$$
[H]c1nn(C([H])([H])[H])c([H])c1-c1c([H])c([H])n2c(-c3c([H])c(N([H])C(=O)c4c([H])c([H])c(C([H])([H])N5C([H])([H])C([H])([H])N(C([H])([H])[H])C([H])([H])C5([H])[H])c([H])c4[H])c([H])c([H])c3C([H])([H])[H])c([H])nc2c1[H]


 40 45  0  0  0  0  0  0  0  0999 V2000
    8.6895   45.9237  129.1409 C   0  0  0  0  0  0  0  0  0  0  0  0
    9.3361   45.5454  127.9449 C   0  0  0  0  0  0  0  0  0  0  0  0
   10.5029   44.8456  127.9936 C   0  0  0  0  0  0  0  0  0  0  0  0
   11.0994   44.4771  129.2006 C   0  0  0  0  0  0  0  0  0  0  0  0
   12.3568   43.6770  129.1273 C   0  0  0  0  0  0  0  0  0  0  0  0
   10.4973   44.8291  130.3986 C   0  0  0  0  0  0  0  0  0  0  0  0
    9.2934   45.5542  130.3057 C   0  0  0  0  0  0  0  0  0  0  0  0
   11.1246   44.5838  131.6911 C   0  0  0  0  0  0  0  0  0  0  0  0
   11.1354   43.4207  132.4243 C   0  0  0  0  0  0  0  0  0  0  0  0
   11.7445   43.6325  133.6065 N   0  0  0  0  0  0  0  0  0  0  0  0
   12.1259   44.9098  133.6510 C   0  0  0  0  0  0  0  0  0  0  0  0
   12.7617   45.5688  134.6719 C   0  0  0  0  0  0  0  0  0  0  0  0
   13.0428   46.9195  134.5238 C   0  0  0  0  0  0  0  0  0  0  0  0
   12.6787   47.5602  133.3645 C   0  0  0  0  0  0  0  0  0  0  0  0
   12.0381   46.8145  132.3799 C   0  0  0  0  0  0  0  0  0  0  0  0
   11.7508   45.5077  132.4820 N   0  0  0  0  0  0  0  0  0  0  0  0
   13.7192   47.5821  135.6307 C   0  0  0  0  0  0  0  0  0  0  0  0
   13.3693   48.7249  136.3179 C   0  0  0  0  0  0  0  0  0  0  0  0
   14.2992   48.9361  137.2450 N   0  0  0  0  0  0  0  0  0  0  0  0
   15.2418   48.0005  137.2098 N   0  0  0  0  0  0  0  0  0  0  0  0
   16.4106   47.8842  138.0512 C   0  0  0  0  0  0  0  0  0  0  0  0
   14.8961   47.1470  136.2081 C   0  0  0  0  0  0  0  0  0  0  0  0
    7.4395   48.0601  129.2118 C   0  0  0  0  0  0  0  0  0  0  0  0
    8.4109   48.7913  129.4868 O   0  0  0  0  0  0  0  0  0  0  0  0
    7.4871   46.6749  129.0351 N   0  0  0  0  0  0  0  0  0  0  0  0
    6.5763   46.1702  128.8156 H   0  0  0  0  0  0  0  0  0  0  0  0
    3.6948   50.0571  128.7602 C   0  0  0  0  0  0  0  0  0  0  0  0
    4.7545   50.7064  129.3000 C   0  0  0  0  0  0  0  0  0  0  0  0
    5.9726   50.0802  129.4577 C   0  0  0  0  0  0  0  0  0  0  0  0
    6.1506   48.7813  129.0739 C   0  0  0  0  0  0  0  0  0  0  0  0
    5.0605   48.1227  128.5220 C   0  0  0  0  0  0  0  0  0  0  0  0
    3.8562   48.7453  128.3672 C   0  0  0  0  0  0  0  0  0  0  0  0
    2.3860   50.7253  128.5896 C   0  0  0  0  0  0  0  0  0  0  0  0
    3.4552   53.9965  125.7633 C   0  0  0  0  0  0  0  0  0  0  0  0
    2.1394   53.4727  125.5647 N   0  0  0  0  0  0  0  0  0  0  0  0
    1.2575   53.6849  126.6763 C   0  0  0  0  0  0  0  0  0  0  0  0
    1.4953   52.7495  127.8345 C   0  0  0  0  0  0  0  0  0  0  0  0
    2.4826   51.7584  127.5798 N   0  0  0  0  0  0  0  0  0  0  0  0
    2.4434   51.1500  126.2944 C   0  0  0  0  0  0  0  0  0  0  0  0
    2.1002   52.0988  125.1759 C   0  0  0  0  0  0  0  0  0  0  0  0
 34 35  1  0  0  0
 35 36  1  0  0  0
 36 37  1  0  0  0
 37 38  1  0  0  0
 38 33  1  0  0  0
 33 27  1  0  0  0
 27 28  2  0  0  0
 28 29  1  0  0  0
 29 30  2  0  0  0
 30 31  1  0  0  0
 31 32  2  0  0  0
 30 23  1  0  0  0
 23 24  2  0  0  0
 23 25  1  0  0  0
 25  1  1  0  0  0
  1  2  2  0  0  0
  2  3  1  0  0  0
  3  4  2  0  0  0
  4  5  1  0  0  0
  4  6  1  0  0  0
  6  7  2  0  0  0
  6  8  1  0  0  0
  8  9  2  0  0  0
  9 10  1  0  0  0
 10 11  2  0  0  0
 11 12  1  0  0  0
 12 13  2  0  0  0
 13 14  1  0  0  0
 14 15  2  0  0  0
 15 16  1  0  0  0
 13 17  1  0  0  0
 17 18  1  0  0  0
 18 19  2  0  0  0
 19 20  1  0  0  0
 20 21  1  0  0  0
 20 22  1  0  0  0
 38 39  1  0  0  0
 39 40  1  0  0  0
 40 35  1  0  0  0
 32 27  1  0  0  0
  7  1  1  0  0  0
 16  8  1  0  0  0
 22 17  2  0  0  0
 16 11  1  0  0  0
 25 26  1  0  0  0
M  END
> <minimizedAffinity>
30.37783

> <CNNscore>
0.4804359078

> <CNNaffinity>
7.1975545883

> <CNN_VS>
3.4579637051

> <CNNaffinity_variance>
0.9421899915

$$$$
[H]c1nn(C([H])([H])[H])c([H])c1-c1c([H])c([H])n2c(-c3c([H])c(N([H])C(=O)c4c([H])c([H])c(C([H])([H])N5C([H])([H])C([H])([H])N(C([H])([H])[H])C([H])([H])C5([H])[H])c([H])c4[H])c([H])c([H])c3C([H])([H])[H])c([H])nc2c1[H]


 40 45  0  0  0  0  0  0  0  0999 V2000
    8.5783   48.7096  132.7343 C   0  0  0  0  0  0  0  0  0  0  0  0
    8.0589   48.8136  134.0423 C   0  0  0  0  0  0  0  0  0  0  0  0
    8.2820   47.8188  134.9447 C   0  0  0  0  0  0  0  0  0  0  0  0
    9.0190   46.6770  134.6258 C   0  0  0  0  0  0  0  0  0  0  0  0
    9.2308   45.6733  135.7096 C   0  0  0  0  0  0  0  0  0  0  0  0
    9.5466   46.5350  133.3517 C   0  0  0  0  0  0  0  0  0  0  0  0
    9.2917   47.5842  132.4473 C   0  0  0  0  0  0  0  0  0  0  0  0
   10.2202   45.3185  132.9151 C   0  0  0  0  0  0  0  0  0  0  0  0
   10.0887   44.0458  133.4185 C   0  0  0  0  0  0  0  0  0  0  0  0
   10.9533   43.2192  132.8000 N   0  0  0  0  0  0  0  0  0  0  0  0
   11.6410   43.9338  131.9081 C   0  0  0  0  0  0  0  0  0  0  0  0
   12.6399   43.5079  131.0704 C   0  0  0  0  0  0  0  0  0  0  0  0
   13.2508   44.4312  130.2340 C   0  0  0  0  0  0  0  0  0  0  0  0
   12.8425   45.7425  130.2658 C   0  0  0  0  0  0  0  0  0  0  0  0
   11.8213   46.0873  131.1457 C   0  0  0  0  0  0  0  0  0  0  0  0
   11.2029   45.2257  131.9680 N   0  0  0  0  0  0  0  0  0  0  0  0
   14.3065   43.9385  129.3598 C   0  0  0  0  0  0  0  0  0  0  0  0
   14.7997   44.4730  128.1886 C   0  0  0  0  0  0  0  0  0  0  0  0
   15.7604   43.6639  127.7516 N   0  0  0  0  0  0  0  0  0  0  0  0
   15.9300   42.6272  128.5651 N   0  0  0  0  0  0  0  0  0  0  0  0
   16.8704   41.5382  128.4330 C   0  0  0  0  0  0  0  0  0  0  0  0
   15.0308   42.7822  129.5743 C   0  0  0  0  0  0  0  0  0  0  0  0
    7.7870   49.5429  130.5407 C   0  0  0  0  0  0  0  0  0  0  0  0
    7.5341   48.4290  130.0414 O   0  0  0  0  0  0  0  0  0  0  0  0
    8.2954   49.7638  131.8234 N   0  0  0  0  0  0  0  0  0  0  0  0
    8.4784   50.7697  132.1190 H   0  0  0  0  0  0  0  0  0  0  0  0
    6.9660   52.9115  128.0521 C   0  0  0  0  0  0  0  0  0  0  0  0
    6.9657   51.6608  127.5309 C   0  0  0  0  0  0  0  0  0  0  0  0
    7.2308   50.5586  128.3155 C   0  0  0  0  0  0  0  0  0  0  0  0
    7.5031   50.6925  129.6474 C   0  0  0  0  0  0  0  0  0  0  0  0
    7.5017   51.9767  130.1742 C   0  0  0  0  0  0  0  0  0  0  0  0
    7.2390   53.0656  129.3950 C   0  0  0  0  0  0  0  0  0  0  0  0
    6.6824   54.0967  127.2136 C   0  0  0  0  0  0  0  0  0  0  0  0
    8.5545   52.8296  123.3768 C   0  0  0  0  0  0  0  0  0  0  0  0
    8.3788   54.2443  123.4907 N   0  0  0  0  0  0  0  0  0  0  0  0
    9.1416   54.8393  124.5501 C   0  0  0  0  0  0  0  0  0  0  0  0
    8.5594   54.6189  125.9232 C   0  0  0  0  0  0  0  0  0  0  0  0
    7.3056   53.9482  125.9151 N   0  0  0  0  0  0  0  0  0  0  0  0
    6.3824   54.3565  124.9126 C   0  0  0  0  0  0  0  0  0  0  0  0
    7.0176   54.6675  123.5826 C   0  0  0  0  0  0  0  0  0  0  0  0
 34 35  1  0  0  0
 35 36  1  0  0  0
 36 37  1  0  0  0
 37 38  1  0  0  0
 38 33  1  0  0  0
 33 27  1  0  0  0
 27 28  2  0  0  0
 28 29  1  0  0  0
 29 30  2  0  0  0
 30 31  1  0  0  0
 31 32  2  0  0  0
 30 23  1  0  0  0
 23 24  2  0  0  0
 23 25  1  0  0  0
 25  1  1  0  0  0
  1  2  2  0  0  0
  2  3  1  0  0  0
  3  4  2  0  0  0
  4  5  1  0  0  0
  4  6  1  0  0  0
  6  7  2  0  0  0
  6  8  1  0  0  0
  8  9  2  0  0  0
  9 10  1  0  0  0
 10 11  2  0  0  0
 11 12  1  0  0  0
 12 13  2  0  0  0
 13 14  1  0  0  0
 14 15  2  0  0  0
 15 16  1  0  0  0
 13 17  1  0  0  0
 17 18  1  0  0  0
 18 19  2  0  0  0
 19 20  1  0  0  0
 20 21  1  0  0  0
 20 22  1  0  0  0
 38 39  1  0  0  0
 39 40  1  0  0  0
 40 35  1  0  0  0
 32 27  1  0  0  0
  7  1  1  0  0  0
 16  8  1  0  0  0
 22 17  2  0  0  0
 16 11  1  0  0  0
 25 26  1  0  0  0
M  END
> <minimizedAffinity>
24.46355

> <CNNscore>
0.4178770185

> <CNNaffinity>
6.9352774620

> <CNN_VS>
2.8980929852

> <CNNaffinity_variance>
0.8390669823

$$$$
[H]c1nn(C([H])([H])[H])c([H])c1-c1c([H])c([H])n2c(-c3c([H])c(N([H])C(=O)c4c([H])c([H])c(C([H])([H])N5C([H])([H])C([H])([H])N(C([H])([H])[H])C([H])([H])C5([H])[H])c([H])c4[H])c([H])c([H])c3C([H])([H])[H])c([H])nc2c1[H]


 40 45  0  0  0  0  0  0  0  0999 V2000
    8.9986   45.7432  129.1973 C   0  0  0  0  0  0  0  0  0  0  0  0
    8.6247   44.6602  128.3733 C   0  0  0  0  0  0  0  0  0  0  0  0
    9.0443   43.4001  128.6727 C   0  0  0  0  0  0  0  0  0  0  0  0
    9.8443   43.1269  129.7835 C   0  0  0  0  0  0  0  0  0  0  0  0
   10.2084   41.7012  130.0317 C   0  0  0  0  0  0  0  0  0  0  0  0
   10.2346   44.1621  130.6188 C   0  0  0  0  0  0  0  0  0  0  0  0
    9.7819   45.4505  130.2737 C   0  0  0  0  0  0  0  0  0  0  0  0
   11.1656   43.9676  131.7231 C   0  0  0  0  0  0  0  0  0  0  0  0
   11.5937   42.7840  132.2765 C   0  0  0  0  0  0  0  0  0  0  0  0
   12.3817   43.0359  133.3389 N   0  0  0  0  0  0  0  0  0  0  0  0
   12.4698   44.3590  133.4826 C   0  0  0  0  0  0  0  0  0  0  0  0
   13.1489   45.0632  134.4438 C   0  0  0  0  0  0  0  0  0  0  0  0
   13.0835   46.4491  134.4293 C   0  0  0  0  0  0  0  0  0  0  0  0
   12.3435   47.0785  133.4580 C   0  0  0  0  0  0  0  0  0  0  0  0
   11.6870   46.2863  132.5213 C   0  0  0  0  0  0  0  0  0  0  0  0
   11.7268   44.9452  132.4982 N   0  0  0  0  0  0  0  0  0  0  0  0
   13.8190   47.1594  135.4667 C   0  0  0  0  0  0  0  0  0  0  0  0
   15.0620   46.8954  136.0013 C   0  0  0  0  0  0  0  0  0  0  0  0
   15.3076   47.8223  136.9228 N   0  0  0  0  0  0  0  0  0  0  0  0
   14.3002   48.6821  137.0278 N   0  0  0  0  0  0  0  0  0  0  0  0
   14.1916   49.8206  137.9107 C   0  0  0  0  0  0  0  0  0  0  0  0
   13.3621   48.2836  136.1264 C   0  0  0  0  0  0  0  0  0  0  0  0
    8.2471   48.0344  129.7607 C   0  0  0  0  0  0  0  0  0  0  0  0
    8.3092   47.9104  130.9995 O   0  0  0  0  0  0  0  0  0  0  0  0
    8.5548   47.0419  128.8265 N   0  0  0  0  0  0  0  0  0  0  0  0
    8.4449   47.2791  127.7949 H   0  0  0  0  0  0  0  0  0  0  0  0
    6.9830   51.9214  128.5326 C   0  0  0  0  0  0  0  0  0  0  0  0
    6.8119   50.8565  127.7124 C   0  0  0  0  0  0  0  0  0  0  0  0
    7.2149   49.5925  128.0874 C   0  0  0  0  0  0  0  0  0  0  0  0
    7.8016   49.3726  129.3013 C   0  0  0  0  0  0  0  0  0  0  0  0
    7.9738   50.4683  130.1360 C   0  0  0  0  0  0  0  0  0  0  0  0
    7.5737   51.7180  129.7619 C   0  0  0  0  0  0  0  0  0  0  0  0
    6.5522   53.2793  128.1338 C   0  0  0  0  0  0  0  0  0  0  0  0
    9.2846   54.8395  124.9824 C   0  0  0  0  0  0  0  0  0  0  0  0
    8.1320   54.1703  124.4637 N   0  0  0  0  0  0  0  0  0  0  0  0
    6.8928   54.8175  124.7855 C   0  0  0  0  0  0  0  0  0  0  0  0
    6.4327   54.5905  126.2031 C   0  0  0  0  0  0  0  0  0  0  0  0
    7.2556   53.6933  126.9379 N   0  0  0  0  0  0  0  0  0  0  0  0
    7.6990   52.5351  126.2409 C   0  0  0  0  0  0  0  0  0  0  0  0
    8.0507   52.7838  124.7975 C   0  0  0  0  0  0  0  0  0  0  0  0
 34 35  1  0  0  0
 35 36  1  0  0  0
 36 37  1  0  0  0
 37 38  1  0  0  0
 38 33  1  0  0  0
 33 27  1  0  0  0
 27 28  2  0  0  0
 28 29  1  0  0  0
 29 30  2  0  0  0
 30 31  1  0  0  0
 31 32  2  0  0  0
 30 23  1  0  0  0
 23 24  2  0  0  0
 23 25  1  0  0  0
 25  1  1  0  0  0
  1  2  2  0  0  0
  2  3  1  0  0  0
  3  4  2  0  0  0
  4  5  1  0  0  0
  4  6  1  0  0  0
  6  7  2  0  0  0
  6  8  1  0  0  0
  8  9  2  0  0  0
  9 10  1  0  0  0
 10 11  2  0  0  0
 11 12  1  0  0  0
 12 13  2  0  0  0
 13 14  1  0  0  0
 14 15  2  0  0  0
 15 16  1  0  0  0
 13 17  1  0  0  0
 17 18  1  0  0  0
 18 19  2  0  0  0
 19 20  1  0  0  0
 20 21  1  0  0  0
 20 22  1  0  0  0
 38 39  1  0  0  0
 39 40  1  0  0  0
 40 35  1  0  0  0
 32 27  1  0  0  0
  7  1  1  0  0  0
 16  8  1  0  0  0
 22 17  2  0  0  0
 16 11  1  0  0  0
 25 26  1  0  0  0
M  END
> <minimizedAffinity>
21.75353

> <CNNscore>
0.3619928360

> <CNNaffinity>
7.3461341858

> <CNN_VS>
2.6592478752

> <CNNaffinity_variance>
1.2481368780

$$$$
[H]c1nn(C([H])([H])[H])c([H])c1-c1c([H])c([H])n2c(-c3c([H])c(N([H])C(=O)c4c([H])c([H])c(C([H])([H])N5C([H])([H])C([H])([H])N(C([H])([H])[H])C([H])([H])C5([H])[H])c([H])c4[H])c([H])c([H])c3C([H])([H])[H])c([H])nc2c1[H]


 40 45  0  0  0  0  0  0  0  0999 V2000
    8.9830   44.9519  132.6106 C   0  0  0  0  0  0  0  0  0  0  0  0
    8.7336   44.6876  133.9743 C   0  0  0  0  0  0  0  0  0  0  0  0
    8.5787   45.7183  134.8503 C   0  0  0  0  0  0  0  0  0  0  0  0
    8.6561   47.0531  134.4495 C   0  0  0  0  0  0  0  0  0  0  0  0
    8.4299   48.0959  135.4926 C   0  0  0  0  0  0  0  0  0  0  0  0
    8.9001   47.3566  133.1191 C   0  0  0  0  0  0  0  0  0  0  0  0
    9.0567   46.2630  132.2453 C   0  0  0  0  0  0  0  0  0  0  0  0
    9.1134   48.7214  132.6544 C   0  0  0  0  0  0  0  0  0  0  0  0
    9.8627   49.7130  133.2426 C   0  0  0  0  0  0  0  0  0  0  0  0
    9.7290   50.8586  132.5476 N   0  0  0  0  0  0  0  0  0  0  0  0
    8.9072   50.6260  131.5231 C   0  0  0  0  0  0  0  0  0  0  0  0
    8.4720   51.5098  130.5689 C   0  0  0  0  0  0  0  0  0  0  0  0
    7.5853   51.0644  129.5991 C   0  0  0  0  0  0  0  0  0  0  0  0
    7.1669   49.7560  129.6187 C   0  0  0  0  0  0  0  0  0  0  0  0
    7.6596   48.9280  130.6225 C   0  0  0  0  0  0  0  0  0  0  0  0
    8.5195   49.3178  131.5761 N   0  0  0  0  0  0  0  0  0  0  0  0
    7.1477   52.0339  128.6040 C   0  0  0  0  0  0  0  0  0  0  0  0
    5.9040   52.5969  128.4118 C   0  0  0  0  0  0  0  0  0  0  0  0
    5.9950   53.4271  127.3769 N   0  0  0  0  0  0  0  0  0  0  0  0
    7.2250   53.4451  126.8750 N   0  0  0  0  0  0  0  0  0  0  0  0
    7.7172   54.2151  125.7559 C   0  0  0  0  0  0  0  0  0  0  0  0
    7.9580   52.5813  127.6285 C   0  0  0  0  0  0  0  0  0  0  0  0
    9.3318   43.9752  130.3619 C   0  0  0  0  0  0  0  0  0  0  0  0
    9.3373   45.0511  129.7322 O   0  0  0  0  0  0  0  0  0  0  0  0
    9.1620   43.8405  131.7423 N   0  0  0  0  0  0  0  0  0  0  0  0
    9.1649   42.8574  132.1498 H   0  0  0  0  0  0  0  0  0  0  0  0
    9.8916   40.4533  128.0172 C   0  0  0  0  0  0  0  0  0  0  0  0
    9.9853   41.6776  127.4442 C   0  0  0  0  0  0  0  0  0  0  0  0
    9.8057   42.8285  128.1818 C   0  0  0  0  0  0  0  0  0  0  0  0
    9.5264   42.7712  129.5177 C   0  0  0  0  0  0  0  0  0  0  0  0
    9.4317   41.5137  130.0977 C   0  0  0  0  0  0  0  0  0  0  0  0
    9.6101   40.3765  129.3649 C   0  0  0  0  0  0  0  0  0  0  0  0
   10.0832   39.2161  127.2292 C   0  0  0  0  0  0  0  0  0  0  0  0
   13.5888   40.4477  124.7745 C   0  0  0  0  0  0  0  0  0  0  0  0
   13.2036   39.0838  124.5826 N   0  0  0  0  0  0  0  0  0  0  0  0
   11.8952   38.9257  124.0158 C   0  0  0  0  0  0  0  0  0  0  0  0
   10.7717   39.1438  124.9972 C   0  0  0  0  0  0  0  0  0  0  0  0
   11.2092   39.3672  126.3317 N   0  0  0  0  0  0  0  0  0  0  0  0
   12.2752   38.5433  126.7884 C   0  0  0  0  0  0  0  0  0  0  0  0
   13.3257   38.2636  125.7456 C   0  0  0  0  0  0  0  0  0  0  0  0
 34 35  1  0  0  0
 35 36  1  0  0  0
 36 37  1  0  0  0
 37 38  1  0  0  0
 38 33  1  0  0  0
 33 27  1  0  0  0
 27 28  2  0  0  0
 28 29  1  0  0  0
 29 30  2  0  0  0
 30 31  1  0  0  0
 31 32  2  0  0  0
 30 23  1  0  0  0
 23 24  2  0  0  0
 23 25  1  0  0  0
 25  1  1  0  0  0
  1  2  2  0  0  0
  2  3  1  0  0  0
  3  4  2  0  0  0
  4  5  1  0  0  0
  4  6  1  0  0  0
  6  7  2  0  0  0
  6  8  1  0  0  0
  8  9  2  0  0  0
  9 10  1  0  0  0
 10 11  2  0  0  0
 11 12  1  0  0  0
 12 13  2  0  0  0
 13 14  1  0  0  0
 14 15  2  0  0  0
 15 16  1  0  0  0
 13 17  1  0  0  0
 17 18  1  0  0  0
 18 19  2  0  0  0
 19 20  1  0  0  0
 20 21  1  0  0  0
 20 22  1  0  0  0
 38 39  1  0  0  0
 39 40  1  0  0  0
 40 35  1  0  0  0
 32 27  1  0  0  0
  7  1  1  0  0  0
 16  8  1  0  0  0
 22 17  2  0  0  0
 16 11  1  0  0  0
 25 26  1  0  0  0
M  END
> <minimizedAffinity>
34.08300

> <CNNscore>
0.3292847872

> <CNNaffinity>
7.1573610306

> <CNN_VS>
2.3568100929

> <CNNaffinity_variance>
0.8579443097

$$$$
[H]c1nn(C([H])([H])[H])c([H])c1-c1c([H])c([H])n2c(-c3c([H])c(N([H])C(=O)c4c([H])c([H])c(C([H])([H])N5C([H])([H])C([H])([H])N(C([H])([H])[H])C([H])([H])C5([H])[H])c([H])c4[H])c([H])c([H])c3C([H])([H])[H])c([H])nc2c1[H]


 40 45  0  0  0  0  0  0  0  0999 V2000
    9.8804   44.7472  132.5220 C   0  0  0  0  0  0  0  0  0  0  0  0
    9.8282   43.9302  131.3725 C   0  0  0  0  0  0  0  0  0  0  0  0
    9.2216   44.3843  130.2414 C   0  0  0  0  0  0  0  0  0  0  0  0
    8.6380   45.6501  130.1673 C   0  0  0  0  0  0  0  0  0  0  0  0
    8.0378   46.0526  128.8617 C   0  0  0  0  0  0  0  0  0  0  0  0
    8.6667   46.4844  131.2740 C   0  0  0  0  0  0  0  0  0  0  0  0
    9.3011   45.9772  132.4248 C   0  0  0  0  0  0  0  0  0  0  0  0
    7.9736   47.7661  131.3058 C   0  0  0  0  0  0  0  0  0  0  0  0
    7.0719   48.2227  132.2378 C   0  0  0  0  0  0  0  0  0  0  0  0
    6.5902   49.4212  131.8574 N   0  0  0  0  0  0  0  0  0  0  0  0
    7.1627   49.7466  130.6975 C   0  0  0  0  0  0  0  0  0  0  0  0
    6.9540   50.8671  129.9348 C   0  0  0  0  0  0  0  0  0  0  0  0
    7.6369   50.9959  128.7339 C   0  0  0  0  0  0  0  0  0  0  0  0
    8.5004   50.0026  128.3401 C   0  0  0  0  0  0  0  0  0  0  0  0
    8.6525   48.9005  129.1757 C   0  0  0  0  0  0  0  0  0  0  0  0
    8.0141   48.7389  130.3449 N   0  0  0  0  0  0  0  0  0  0  0  0
    7.3876   52.2006  127.9541 C   0  0  0  0  0  0  0  0  0  0  0  0
    7.1620   53.4926  128.3792 C   0  0  0  0  0  0  0  0  0  0  0  0
    6.9857   54.2458  127.2975 N   0  0  0  0  0  0  0  0  0  0  0  0
    7.0815   53.5273  126.1840 N   0  0  0  0  0  0  0  0  0  0  0  0
    6.9510   53.9819  124.8188 C   0  0  0  0  0  0  0  0  0  0  0  0
    7.3320   52.2484  126.5748 C   0  0  0  0  0  0  0  0  0  0  0  0
   11.8896   44.1777  133.8528 C   0  0  0  0  0  0  0  0  0  0  0  0
   12.7329   44.5806  133.0280 O   0  0  0  0  0  0  0  0  0  0  0  0
   10.5030   44.2162  133.6846 N   0  0  0  0  0  0  0  0  0  0  0  0
    9.8964   43.8246  134.4665 H   0  0  0  0  0  0  0  0  0  0  0  0
   13.6511   42.5694  137.3919 C   0  0  0  0  0  0  0  0  0  0  0  0
   12.3066   42.7112  137.3017 C   0  0  0  0  0  0  0  0  0  0  0  0
   11.7163   43.2308  136.1693 C   0  0  0  0  0  0  0  0  0  0  0  0
   12.4702   43.6205  135.0988 C   0  0  0  0  0  0  0  0  0  0  0  0
   13.8467   43.4723  135.1986 C   0  0  0  0  0  0  0  0  0  0  0  0
   14.4279   42.9577  136.3208 C   0  0  0  0  0  0  0  0  0  0  0  0
   14.2884   42.0127  138.6053 C   0  0  0  0  0  0  0  0  0  0  0  0
   16.8425   38.8505  136.7863 C   0  0  0  0  0  0  0  0  0  0  0  0
   17.3298   39.3310  138.0421 N   0  0  0  0  0  0  0  0  0  0  0  0
   16.4534   39.0607  139.1453 C   0  0  0  0  0  0  0  0  0  0  0  0
   15.2577   39.9762  139.2168 C   0  0  0  0  0  0  0  0  0  0  0  0
   15.2645   41.0082  138.2385 N   0  0  0  0  0  0  0  0  0  0  0  0
   16.5154   41.6452  138.0075 C   0  0  0  0  0  0  0  0  0  0  0  0
   17.6968   40.7115  138.0471 C   0  0  0  0  0  0  0  0  0  0  0  0
 34 35  1  0  0  0
 35 36  1  0  0  0
 36 37  1  0  0  0
 37 38  1  0  0  0
 38 33  1  0  0  0
 33 27  1  0  0  0
 27 28  2  0  0  0
 28 29  1  0  0  0
 29 30  2  0  0  0
 30 31  1  0  0  0
 31 32  2  0  0  0
 30 23  1  0  0  0
 23 24  2  0  0  0
 23 25  1  0  0  0
 25  1  1  0  0  0
  1  2  2  0  0  0
  2  3  1  0  0  0
  3  4  2  0  0  0
  4  5  1  0  0  0
  4  6  1  0  0  0
  6  7  2  0  0  0
  6  8  1  0  0  0
  8  9  2  0  0  0
  9 10  1  0  0  0
 10 11  2  0  0  0
 11 12  1  0  0  0
 12 13  2  0  0  0
 13 14  1  0  0  0
 14 15  2  0  0  0
 15 16  1  0  0  0
 13 17  1  0  0  0
 17 18  1  0  0  0
 18 19  2  0  0  0
 19 20  1  0  0  0
 20 21  1  0  0  0
 20 22  1  0  0  0
 38 39  1  0  0  0
 39 40  1  0  0  0
 40 35  1  0  0  0
 32 27  1  0  0  0
  7  1  1  0  0  0
 16  8  1  0  0  0
 22 17  2  0  0  0
 16 11  1  0  0  0
 25 26  1  0  0  0
M  END
> <minimizedAffinity>
34.58603

> <CNNscore>
0.3278842568

> <CNNaffinity>
7.1178236008

> <CNN_VS>
2.3338222504

> <CNNaffinity_variance>
1.3799231052

$$$$
[H]c1nn(C([H])([H])[H])c([H])c1-c1c([H])c([H])n2c(-c3c([H])c(N([H])C(=O)c4c([H])c([H])c(C([H])([H])N5C([H])([H])C([H])([H])N(C([H])([H])[H])C([H])([H])C5([H])[H])c([H])c4[H])c([H])c([H])c3C([H])([H])[H])c([H])nc2c1[H]


 40 45  0  0  0  0  0  0  0  0999 V2000
    9.3243   47.8893  131.2979 C   0  0  0  0  0  0  0  0  0  0  0  0
    9.9230   48.0318  132.5678 C   0  0  0  0  0  0  0  0  0  0  0  0
   10.2377   46.9279  133.2999 C   0  0  0  0  0  0  0  0  0  0  0  0
    9.9899   45.6340  132.8386 C   0  0  0  0  0  0  0  0  0  0  0  0
   10.4150   44.5018  133.7128 C   0  0  0  0  0  0  0  0  0  0  0  0
    9.4027   45.4495  131.5965 C   0  0  0  0  0  0  0  0  0  0  0  0
    9.0903   46.6159  130.8715 C   0  0  0  0  0  0  0  0  0  0  0  0
    9.0059   44.1356  131.1062 C   0  0  0  0  0  0  0  0  0  0  0  0
    8.1574   43.2283  131.6956 C   0  0  0  0  0  0  0  0  0  0  0  0
    8.1249   42.0954  130.9685 N   0  0  0  0  0  0  0  0  0  0  0  0
    8.9366   42.2534  129.9220 C   0  0  0  0  0  0  0  0  0  0  0  0
    9.2277   41.3502  128.9319 C   0  0  0  0  0  0  0  0  0  0  0  0
   10.1322   41.7097  127.9430 C   0  0  0  0  0  0  0  0  0  0  0  0
   10.7112   42.9549  127.9801 C   0  0  0  0  0  0  0  0  0  0  0  0
   10.3578   43.8086  129.0204 C   0  0  0  0  0  0  0  0  0  0  0  0
    9.4864   43.5013  129.9935 N   0  0  0  0  0  0  0  0  0  0  0  0
   10.4136   40.7223  126.9098 C   0  0  0  0  0  0  0  0  0  0  0  0
   11.5973   40.0879  126.5983 C   0  0  0  0  0  0  0  0  0  0  0  0
   11.3580   39.2711  125.5765 N   0  0  0  0  0  0  0  0  0  0  0  0
   10.0866   39.3292  125.1953 N   0  0  0  0  0  0  0  0  0  0  0  0
    9.4442   38.5969  124.1283 C   0  0  0  0  0  0  0  0  0  0  0  0
    9.4822   40.2301  126.0164 C   0  0  0  0  0  0  0  0  0  0  0  0
    7.7114   49.3271  130.0881 C   0  0  0  0  0  0  0  0  0  0  0  0
    6.7285   48.5676  130.1923 O   0  0  0  0  0  0  0  0  0  0  0  0
    8.9925   49.0738  130.5851 N   0  0  0  0  0  0  0  0  0  0  0  0
    9.7460   49.8055  130.4131 H   0  0  0  0  0  0  0  0  0  0  0  0
    6.9484   52.9229  127.9194 C   0  0  0  0  0  0  0  0  0  0  0  0
    6.8186   52.8978  129.2679 C   0  0  0  0  0  0  0  0  0  0  0  0
    7.0575   51.7468  129.9884 C   0  0  0  0  0  0  0  0  0  0  0  0
    7.4335   50.5915  129.3640 C   0  0  0  0  0  0  0  0  0  0  0  0
    7.5642   50.6249  127.9825 C   0  0  0  0  0  0  0  0  0  0  0  0
    7.3272   51.7656  127.2723 C   0  0  0  0  0  0  0  0  0  0  0  0
    6.6927   54.1556  127.1427 C   0  0  0  0  0  0  0  0  0  0  0  0
    8.2397   52.9243  123.1525 C   0  0  0  0  0  0  0  0  0  0  0  0
    8.1672   54.3417  123.3282 N   0  0  0  0  0  0  0  0  0  0  0  0
    9.0312   54.8426  124.3583 C   0  0  0  0  0  0  0  0  0  0  0  0
    8.5194   54.6056  125.7564 C   0  0  0  0  0  0  0  0  0  0  0  0
    7.2248   54.0191  125.8031 N   0  0  0  0  0  0  0  0  0  0  0  0
    6.2725   54.5267  124.8761 C   0  0  0  0  0  0  0  0  0  0  0  0
    6.8458   54.8489  123.5208 C   0  0  0  0  0  0  0  0  0  0  0  0
 34 35  1  0  0  0
 35 36  1  0  0  0
 36 37  1  0  0  0
 37 38  1  0  0  0
 38 33  1  0  0  0
 33 27  1  0  0  0
 27 28  2  0  0  0
 28 29  1  0  0  0
 29 30  2  0  0  0
 30 31  1  0  0  0
 31 32  2  0  0  0
 30 23  1  0  0  0
 23 24  2  0  0  0
 23 25  1  0  0  0
 25  1  1  0  0  0
  1  2  2  0  0  0
  2  3  1  0  0  0
  3  4  2  0  0  0
  4  5  1  0  0  0
  4  6  1  0  0  0
  6  7  2  0  0  0
  6  8  1  0  0  0
  8  9  2  0  0  0
  9 10  1  0  0  0
 10 11  2  0  0  0
 11 12  1  0  0  0
 12 13  2  0  0  0
 13 14  1  0  0  0
 14 15  2  0  0  0
 15 16  1  0  0  0
 13 17  1  0  0  0
 17 18  1  0  0  0
 18 19  2  0  0  0
 19 20  1  0  0  0
 20 21  1  0  0  0
 20 22  1  0  0  0
 38 39  1  0  0  0
 39 40  1  0  0  0
 40 35  1  0  0  0
 32 27  1  0  0  0
  7  1  1  0  0  0
 16  8  1  0  0  0
 22 17  2  0  0  0
 16 11  1  0  0  0
 25 26  1  0  0  0
M  END
> <minimizedAffinity>
24.12328

> <CNNscore>
0.3103714585

> <CNNaffinity>
7.0608024597

> <CNN_VS>
2.1914715767

> <CNNaffinity_variance>
0.4643003941

$$$$
[H]c1nn(C([H])([H])[H])c([H])c1-c1c([H])c([H])n2c(-c3c([H])c(N([H])C(=O)c4c([H])c([H])c(C([H])([H])N5C([H])([H])C([H])([H])N(C([H])([H])[H])C([H])([H])C5([H])[H])c([H])c4[H])c([H])c([H])c3C([H])([H])[H])c([H])nc2c1[H]


 40 45  0  0  0  0  0  0  0  0999 V2000
    8.4043   47.8742  131.8951 C   0  0  0  0  0  0  0  0  0  0  0  0
    9.1277   48.7338  132.7491 C   0  0  0  0  0  0  0  0  0  0  0  0
   10.2503   48.2850  133.3751 C   0  0  0  0  0  0  0  0  0  0  0  0
   10.7276   46.9844  133.2043 C   0  0  0  0  0  0  0  0  0  0  0  0
   11.9901   46.6195  133.9112 C   0  0  0  0  0  0  0  0  0  0  0  0
   10.0465   46.1074  132.3744 C   0  0  0  0  0  0  0  0  0  0  0  0
    8.8893   46.6089  131.7473 C   0  0  0  0  0  0  0  0  0  0  0  0
   10.4183   44.7041  132.2455 C   0  0  0  0  0  0  0  0  0  0  0  0
   11.1494   43.9341  133.1189 C   0  0  0  0  0  0  0  0  0  0  0  0
   11.3521   42.7124  132.5901 N   0  0  0  0  0  0  0  0  0  0  0  0
   10.7670   42.6793  131.3920 C   0  0  0  0  0  0  0  0  0  0  0  0
   10.7383   41.6451  130.4917 C   0  0  0  0  0  0  0  0  0  0  0  0
   10.0936   41.8327  129.2775 C   0  0  0  0  0  0  0  0  0  0  0  0
    9.5036   43.0437  129.0080 C   0  0  0  0  0  0  0  0  0  0  0  0
    9.5799   44.0375  129.9788 C   0  0  0  0  0  0  0  0  0  0  0  0
   10.1903   43.8961  131.1655 N   0  0  0  0  0  0  0  0  0  0  0  0
   10.0854   40.7099  128.3496 C   0  0  0  0  0  0  0  0  0  0  0  0
    9.5239   39.4584  128.4882 C   0  0  0  0  0  0  0  0  0  0  0  0
    9.7797   38.7783  127.3743 N   0  0  0  0  0  0  0  0  0  0  0  0
   10.4768   39.5070  126.5093 N   0  0  0  0  0  0  0  0  0  0  0  0
   10.9437   39.1231  125.1970 C   0  0  0  0  0  0  0  0  0  0  0  0
   10.6767   40.7156  127.1014 C   0  0  0  0  0  0  0  0  0  0  0  0
    7.2423   49.1203  130.0981 C   0  0  0  0  0  0  0  0  0  0  0  0
    8.2605   49.4248  129.4465 O   0  0  0  0  0  0  0  0  0  0  0  0
    7.2254   48.3840  131.2856 N   0  0  0  0  0  0  0  0  0  0  0  0
    6.2830   48.2065  131.7469 H   0  0  0  0  0  0  0  0  0  0  0  0
    3.5915   50.4588  128.3389 C   0  0  0  0  0  0  0  0  0  0  0  0
    4.1841   51.1839  129.3182 C   0  0  0  0  0  0  0  0  0  0  0  0
    5.3621   50.7693  129.9023 C   0  0  0  0  0  0  0  0  0  0  0  0
    5.9712   49.6107  129.5115 C   0  0  0  0  0  0  0  0  0  0  0  0
    5.3583   48.8732  128.5080 C   0  0  0  0  0  0  0  0  0  0  0  0
    4.1924   49.2863  127.9318 C   0  0  0  0  0  0  0  0  0  0  0  0
    2.3273   50.9000  127.7099 C   0  0  0  0  0  0  0  0  0  0  0  0
    3.6590   54.8103  126.0463 C   0  0  0  0  0  0  0  0  0  0  0  0
    2.3518   54.4190  125.6182 N   0  0  0  0  0  0  0  0  0  0  0  0
    1.3954   54.3310  126.6839 C   0  0  0  0  0  0  0  0  0  0  0  0
    1.5311   53.0895  127.5283 C   0  0  0  0  0  0  0  0  0  0  0  0
    2.5160   52.1785  127.0572 N   0  0  0  0  0  0  0  0  0  0  0  0
    2.5595   51.9744  125.6499 C   0  0  0  0  0  0  0  0  0  0  0  0
    2.3161   53.2213  124.8405 C   0  0  0  0  0  0  0  0  0  0  0  0
 34 35  1  0  0  0
 35 36  1  0  0  0
 36 37  1  0  0  0
 37 38  1  0  0  0
 38 33  1  0  0  0
 33 27  1  0  0  0
 27 28  2  0  0  0
 28 29  1  0  0  0
 29 30  2  0  0  0
 30 31  1  0  0  0
 31 32  2  0  0  0
 30 23  1  0  0  0
 23 24  2  0  0  0
 23 25  1  0  0  0
 25  1  1  0  0  0
  1  2  2  0  0  0
  2  3  1  0  0  0
  3  4  2  0  0  0
  4  5  1  0  0  0
  4  6  1  0  0  0
  6  7  2  0  0  0
  6  8  1  0  0  0
  8  9  2  0  0  0
  9 10  1  0  0  0
 10 11  2  0  0  0
 11 12  1  0  0  0
 12 13  2  0  0  0
 13 14  1  0  0  0
 14 15  2  0  0  0
 15 16  1  0  0  0
 13 17  1  0  0  0
 17 18  1  0  0  0
 18 19  2  0  0  0
 19 20  1  0  0  0
 20 21  1  0  0  0
 20 22  1  0  0  0
 38 39  1  0  0  0
 39 40  1  0  0  0
 40 35  1  0  0  0
 32 27  1  0  0  0
  7  1  1  0  0  0
 16  8  1  0  0  0
 22 17  2  0  0  0
 16 11  1  0  0  0
 25 26  1  0  0  0
M  END
> <minimizedAffinity>
33.72586

> <CNNscore>
0.3068257272

> <CNNaffinity>
6.8943085670

> <CNN_VS>
2.1153512001

> <CNNaffinity_variance>
0.3929193616

$$$$
[H]c1nn(C([H])([H])[H])c([H])c1-c1c([H])c([H])n2c(-c3c([H])c(N([H])C(=O)c4c([H])c([H])c(C([H])([H])N5C([H])([H])C([H])([H])N(C([H])([H])[H])C([H])([H])C5([H])[H])c([H])c4[H])c([H])c([H])c3C([H])([H])[H])c([H])nc2c1[H]


 40 45  0  0  0  0  0  0  0  0999 V2000
    8.4445   46.7018  129.2061 C   0  0  0  0  0  0  0  0  0  0  0  0
    7.7243   45.6070  128.6824 C   0  0  0  0  0  0  0  0  0  0  0  0
    8.0093   44.3426  129.0990 C   0  0  0  0  0  0  0  0  0  0  0  0
    9.0030   44.0766  130.0425 C   0  0  0  0  0  0  0  0  0  0  0  0
    9.1973   42.6544  130.4505 C   0  0  0  0  0  0  0  0  0  0  0  0
    9.7344   45.1234  130.5819 C   0  0  0  0  0  0  0  0  0  0  0  0
    9.4110   46.4154  130.1236 C   0  0  0  0  0  0  0  0  0  0  0  0
   10.8640   44.9087  131.4774 C   0  0  0  0  0  0  0  0  0  0  0  0
   11.6041   43.7634  131.6537 C   0  0  0  0  0  0  0  0  0  0  0  0
   12.5016   43.9478  132.6404 N   0  0  0  0  0  0  0  0  0  0  0  0
   12.3546   45.1893  133.1051 C   0  0  0  0  0  0  0  0  0  0  0  0
   13.0413   45.7994  134.1235 C   0  0  0  0  0  0  0  0  0  0  0  0
   12.7063   47.1002  134.4712 C   0  0  0  0  0  0  0  0  0  0  0  0
   11.6997   47.7414  133.7908 C   0  0  0  0  0  0  0  0  0  0  0  0
   11.0562   47.0477  132.7707 C   0  0  0  0  0  0  0  0  0  0  0  0
   11.3513   45.7918  132.4015 N   0  0  0  0  0  0  0  0  0  0  0  0
   13.4596   47.7121  135.5573 C   0  0  0  0  0  0  0  0  0  0  0  0
   13.1808   48.8447  136.2923 C   0  0  0  0  0  0  0  0  0  0  0  0
   14.1641   49.0034  137.1735 N   0  0  0  0  0  0  0  0  0  0  0  0
   15.0752   48.0426  137.0632 N   0  0  0  0  0  0  0  0  0  0  0  0
   16.2827   47.8697  137.8375 C   0  0  0  0  0  0  0  0  0  0  0  0
   14.6518   47.2278  136.0593 C   0  0  0  0  0  0  0  0  0  0  0  0
    7.6265   49.0154  129.5382 C   0  0  0  0  0  0  0  0  0  0  0  0
    7.3945   48.9169  130.7590 O   0  0  0  0  0  0  0  0  0  0  0  0
    8.1251   47.9989  128.7194 N   0  0  0  0  0  0  0  0  0  0  0  0
    8.2643   48.2157  127.6868 H   0  0  0  0  0  0  0  0  0  0  0  0
    6.8058   52.8253  127.7985 C   0  0  0  0  0  0  0  0  0  0  0  0
    6.6285   52.6285  129.1273 C   0  0  0  0  0  0  0  0  0  0  0  0
    6.8849   51.4057  129.7101 C   0  0  0  0  0  0  0  0  0  0  0  0
    7.3269   50.3500  128.9642 C   0  0  0  0  0  0  0  0  0  0  0  0
    7.5060   50.5590  127.6037 C   0  0  0  0  0  0  0  0  0  0  0  0
    7.2514   51.7706  127.0300 C   0  0  0  0  0  0  0  0  0  0  0  0
    6.5315   54.1357  127.1693 C   0  0  0  0  0  0  0  0  0  0  0  0
    2.2040   54.8480  126.3964 C   0  0  0  0  0  0  0  0  0  0  0  0
    2.8192   53.9678  125.4519 N   0  0  0  0  0  0  0  0  0  0  0  0
    3.2984   52.7442  126.0273 C   0  0  0  0  0  0  0  0  0  0  0  0
    4.5911   52.8901  126.7892 C   0  0  0  0  0  0  0  0  0  0  0  0
    5.1574   54.1925  126.7166 N   0  0  0  0  0  0  0  0  0  0  0  0
    5.1189   54.8228  125.4418 C   0  0  0  0  0  0  0  0  0  0  0  0
    3.8521   54.5670  124.6680 C   0  0  0  0  0  0  0  0  0  0  0  0
 34 35  1  0  0  0
 35 36  1  0  0  0
 36 37  1  0  0  0
 37 38  1  0  0  0
 38 33  1  0  0  0
 33 27  1  0  0  0
 27 28  2  0  0  0
 28 29  1  0  0  0
 29 30  2  0  0  0
 30 31  1  0  0  0
 31 32  2  0  0  0
 30 23  1  0  0  0
 23 24  2  0  0  0
 23 25  1  0  0  0
 25  1  1  0  0  0
  1  2  2  0  0  0
  2  3  1  0  0  0
  3  4  2  0  0  0
  4  5  1  0  0  0
  4  6  1  0  0  0
  6  7  2  0  0  0
  6  8  1  0  0  0
  8  9  2  0  0  0
  9 10  1  0  0  0
 10 11  2  0  0  0
 11 12  1  0  0  0
 12 13  2  0  0  0
 13 14  1  0  0  0
 14 15  2  0  0  0
 15 16  1  0  0  0
 13 17  1  0  0  0
 17 18  1  0  0  0
 18 19  2  0  0  0
 19 20  1  0  0  0
 20 21  1  0  0  0
 20 22  1  0  0  0
 38 39  1  0  0  0
 39 40  1  0  0  0
 40 35  1  0  0  0
 32 27  1  0  0  0
  7  1  1  0  0  0
 16  8  1  0  0  0
 22 17  2  0  0  0
 16 11  1  0  0  0
 25 26  1  0  0  0
M  END
> <minimizedAffinity>
29.68579

> <CNNscore>
0.3047705889

> <CNNaffinity>
7.2668876648

> <CNN_VS>
2.2147336006

> <CNNaffinity_variance>
1.0479059219

$$$$
[H]c1nn(C([H])([H])[H])c([H])c1-c1c([H])c([H])n2c(-c3c([H])c(N([H])C(=O)c4c([H])c([H])c(C([H])([H])N5C([H])([H])C([H])([H])N(C([H])([H])[H])C([H])([H])C5([H])[H])c([H])c4[H])c([H])c([H])c3C([H])([H])[H])c([H])nc2c1[H]


 40 45  0  0  0  0  0  0  0  0999 V2000
    8.9668   49.4189  131.7025 C   0  0  0  0  0  0  0  0  0  0  0  0
    8.3343   49.5035  132.9612 C   0  0  0  0  0  0  0  0  0  0  0  0
    8.5230   48.5217  133.8854 C   0  0  0  0  0  0  0  0  0  0  0  0
    9.3330   47.4123  133.6372 C   0  0  0  0  0  0  0  0  0  0  0  0
    9.4953   46.4217  134.7413 C   0  0  0  0  0  0  0  0  0  0  0  0
    9.9724   47.2901  132.4133 C   0  0  0  0  0  0  0  0  0  0  0  0
    9.7500   48.3249  131.4839 C   0  0  0  0  0  0  0  0  0  0  0  0
   10.7326   46.1031  132.0429 C   0  0  0  0  0  0  0  0  0  0  0  0
   12.0553   45.8266  132.2967 C   0  0  0  0  0  0  0  0  0  0  0  0
   12.3997   44.6658  131.7074 N   0  0  0  0  0  0  0  0  0  0  0  0
   11.3255   44.1884  131.0773 C   0  0  0  0  0  0  0  0  0  0  0  0
   11.2215   43.0439  130.3288 C   0  0  0  0  0  0  0  0  0  0  0  0
   10.0069   42.7453  129.7281 C   0  0  0  0  0  0  0  0  0  0  0  0
    8.9441   43.5992  129.8966 C   0  0  0  0  0  0  0  0  0  0  0  0
    9.1377   44.7375  130.6730 C   0  0  0  0  0  0  0  0  0  0  0  0
   10.2936   45.0611  131.2730 N   0  0  0  0  0  0  0  0  0  0  0  0
    9.9382   41.5209  128.9421 C   0  0  0  0  0  0  0  0  0  0  0  0
    9.6347   40.2362  129.3398 C   0  0  0  0  0  0  0  0  0  0  0  0
    9.7006   39.4571  128.2641 N   0  0  0  0  0  0  0  0  0  0  0  0
   10.0297   40.1516  127.1804 N   0  0  0  0  0  0  0  0  0  0  0  0
   10.1997   39.6652  125.8306 C   0  0  0  0  0  0  0  0  0  0  0  0
   10.1820   41.4418  127.5849 C   0  0  0  0  0  0  0  0  0  0  0  0
    7.6114   50.4585  129.9097 C   0  0  0  0  0  0  0  0  0  0  0  0
    6.7358   49.5731  129.8533 O   0  0  0  0  0  0  0  0  0  0  0  0
    8.7169   50.4574  130.7643 N   0  0  0  0  0  0  0  0  0  0  0  0
    9.3969   51.2734  130.6983 H   0  0  0  0  0  0  0  0  0  0  0  0
    7.0292   53.6271  127.1103 C   0  0  0  0  0  0  0  0  0  0  0  0
    7.2161   53.9017  128.4239 C   0  0  0  0  0  0  0  0  0  0  0  0
    7.4035   52.8941  129.3460 C   0  0  0  0  0  0  0  0  0  0  0  0
    7.4065   51.5826  128.9637 C   0  0  0  0  0  0  0  0  0  0  0  0
    7.2143   51.3090  127.6166 C   0  0  0  0  0  0  0  0  0  0  0  0
    7.0292   52.3086  126.7064 C   0  0  0  0  0  0  0  0  0  0  0  0
    6.8275   54.7054  126.1178 C   0  0  0  0  0  0  0  0  0  0  0  0
    3.8500   52.7527  123.4433 C   0  0  0  0  0  0  0  0  0  0  0  0
    3.8516   54.1801  123.3561 N   0  0  0  0  0  0  0  0  0  0  0  0
    5.0795   54.7285  122.8563 C   0  0  0  0  0  0  0  0  0  0  0  0
    6.1969   54.7519  123.8681 C   0  0  0  0  0  0  0  0  0  0  0  0
    5.8067   54.3208  125.1658 N   0  0  0  0  0  0  0  0  0  0  0  0
    4.5458   54.7888  125.6293 C   0  0  0  0  0  0  0  0  0  0  0  0
    3.4831   54.8487  124.5634 C   0  0  0  0  0  0  0  0  0  0  0  0
 34 35  1  0  0  0
 35 36  1  0  0  0
 36 37  1  0  0  0
 37 38  1  0  0  0
 38 33  1  0  0  0
 33 27  1  0  0  0
 27 28  2  0  0  0
 28 29  1  0  0  0
 29 30  2  0  0  0
 30 31  1  0  0  0
 31 32  2  0  0  0
 30 23  1  0  0  0
 23 24  2  0  0  0
 23 25  1  0  0  0
 25  1  1  0  0  0
  1  2  2  0  0  0
  2  3  1  0  0  0
  3  4  2  0  0  0
  4  5  1  0  0  0
  4  6  1  0  0  0
  6  7  2  0  0  0
  6  8  1  0  0  0
  8  9  2  0  0  0
  9 10  1  0  0  0
 10 11  2  0  0  0
 11 12  1  0  0  0
 12 13  2  0  0  0
 13 14  1  0  0  0
 14 15  2  0  0  0
 15 16  1  0  0  0
 13 17  1  0  0  0
 17 18  1  0  0  0
 18 19  2  0  0  0
 19 20  1  0  0  0
 20 21  1  0  0  0
 20 22  1  0  0  0
 38 39  1  0  0  0
 39 40  1  0  0  0
 40 35  1  0  0  0
 32 27  1  0  0  0
  7  1  1  0  0  0
 16  8  1  0  0  0
 22 17  2  0  0  0
 16 11  1  0  0  0
 25 26  1  0  0  0
M  END
> <minimizedAffinity>
25.72376

> <CNNscore>
0.3041016459

> <CNNaffinity>
6.8783583641

> <CNN_VS>
2.0917201042

> <CNNaffinity_variance>
0.6927850246

$$$$
[H]c1nc2c([H])c(OC([H])([H])C([H])([H])C([H])([H])N3C([H])([H])C([H])([H])OC([H])([H])C3([H])[H])c(OC([H])([H])[H])c([H])c2c(Oc2c([H])c([H])c(N([H])C(=O)C3(C(=O)N([H])c4c([H])c([H])c(F)c([H])c4[H])C([H])([H])C3([H])[H])c([H])c2F)c1[H]


 48 53  0  0  0  0  0  0  0  0999 V2000
   11.7400   45.2584  133.8164 C   0  0  0  0  0  0  0  0  0  0  0  0
   12.8606   45.9681  134.2193 C   0  0  0  0  0  0  0  0  0  0  0  0
   13.8817   45.3636  134.9564 C   0  0  0  0  0  0  0  0  0  0  0  0
   13.8364   44.0396  135.3207 C   0  0  0  0  0  0  0  0  0  0  0  0
   12.7172   43.3373  134.9159 C   0  0  0  0  0  0  0  0  0  0  0  0
   11.6873   43.9320  134.1787 C   0  0  0  0  0  0  0  0  0  0  0  0
   10.5916   43.1997  133.8228 F   0  0  0  0  0  0  0  0  0  0  0  0
   14.8626   43.4108  136.0858 N   0  0  0  0  0  0  0  0  0  0  0  0
   14.6592   42.6579  137.2622 C   0  0  0  0  0  0  0  0  0  0  0  0
   13.5426   42.4913  137.7893 O   0  0  0  0  0  0  0  0  0  0  0  0
   15.8530   43.5081  135.7466 H   0  0  0  0  0  0  0  0  0  0  0  0
   15.8714   42.0011  137.8892 C   0  0  0  0  0  0  0  0  0  0  0  0
   16.3996   40.7880  137.1397 C   0  0  0  0  0  0  0  0  0  0  0  0
   15.5370   40.6107  138.3759 C   0  0  0  0  0  0  0  0  0  0  0  0
   16.7639   42.8424  138.6982 C   0  0  0  0  0  0  0  0  0  0  0  0
   17.0232   44.0292  138.2363 O   0  0  0  0  0  0  0  0  0  0  0  0
   17.3755   42.4927  139.9099 N   0  0  0  0  0  0  0  0  0  0  0  0
   17.2401   41.5054  140.2885 H   0  0  0  0  0  0  0  0  0  0  0  0
   18.2160   43.3714  140.6715 C   0  0  0  0  0  0  0  0  0  0  0  0
   19.3076   42.8814  141.3076 C   0  0  0  0  0  0  0  0  0  0  0  0
   20.0915   43.7109  142.0823 C   0  0  0  0  0  0  0  0  0  0  0  0
   19.7443   45.0549  142.2000 C   0  0  0  0  0  0  0  0  0  0  0  0
   20.4780   45.9292  142.9441 F   0  0  0  0  0  0  0  0  0  0  0  0
   18.6256   45.5708  141.5512 C   0  0  0  0  0  0  0  0  0  0  0  0
   17.8848   44.7050  140.7970 C   0  0  0  0  0  0  0  0  0  0  0  0
   10.7470   45.9159  133.0844 O   0  0  0  0  0  0  0  0  0  0  0  0
    8.7801   47.5010  129.8614 C   0  0  0  0  0  0  0  0  0  0  0  0
    9.4447   46.9886  130.9547 C   0  0  0  0  0  0  0  0  0  0  0  0
    9.8432   47.8327  132.0008 C   0  0  0  0  0  0  0  0  0  0  0  0
   10.5143   47.2785  133.0989 C   0  0  0  0  0  0  0  0  0  0  0  0
   10.9020   48.0968  134.1219 C   0  0  0  0  0  0  0  0  0  0  0  0
   10.6161   49.4592  134.0334 C   0  0  0  0  0  0  0  0  0  0  0  0
    9.9688   49.9622  132.9648 N   0  0  0  0  0  0  0  0  0  0  0  0
    9.5805   49.1812  131.9576 C   0  0  0  0  0  0  0  0  0  0  0  0
    8.9189   49.7054  130.8715 C   0  0  0  0  0  0  0  0  0  0  0  0
    8.5323   48.8821  129.8543 C   0  0  0  0  0  0  0  0  0  0  0  0
    7.0853   46.1870  128.7011 C   0  0  0  0  0  0  0  0  0  0  0  0
    8.3650   46.7231  128.8132 O   0  0  0  0  0  0  0  0  0  0  0  0
    7.8839   49.4390  128.7910 O   0  0  0  0  0  0  0  0  0  0  0  0
    7.1148   50.6223  128.8694 C   0  0  0  0  0  0  0  0  0  0  0  0
    7.5827   51.6647  127.8884 C   0  0  0  0  0  0  0  0  0  0  0  0
    6.7958   52.9211  128.1017 C   0  0  0  0  0  0  0  0  0  0  0  0
    7.3349   54.0667  127.3916 N   0  0  0  0  0  0  0  0  0  0  0  0
    6.1421   54.8004  126.9089 C   0  0  0  0  0  0  0  0  0  0  0  0
    6.4816   55.8691  125.9262 C   0  0  0  0  0  0  0  0  0  0  0  0
    7.5110   55.5110  125.0366 O   0  0  0  0  0  0  0  0  0  0  0  0
    7.5088   54.1350  124.9317 C   0  0  0  0  0  0  0  0  0  0  0  0
    8.0614   53.5418  126.2294 C   0  0  0  0  0  0  0  0  0  0  0  0
 37 38  1  0  0  0
 38 27  1  0  0  0
 27 28  2  0  0  0
 28 29  1  0  0  0
 29 30  2  0  0  0
 30 26  1  0  0  0
 26  1  1  0  0  0
  1  2  2  0  0  0
  2  3  1  0  0  0
  3  4  2  0  0  0
  4  8  1  0  0  0
  8  9  1  0  0  0
  9 10  2  0  0  0
  9 12  1  0  0  0
 12 13  1  0  0  0
 13 14  1  0  0  0
 12 15  1  0  0  0
 15 16  2  0  0  0
 15 17  1  0  0  0
 17 19  1  0  0  0
 19 20  2  0  0  0
 20 21  1  0  0  0
 21 22  2  0  0  0
 22 23  1  0  0  0
 22 24  1  0  0  0
 24 25  2  0  0  0
  4  5  1  0  0  0
  5  6  2  0  0  0
  6  7  1  0  0  0
 30 31  1  0  0  0
 31 32  2  0  0  0
 32 33  1  0  0  0
 33 34  2  0  0  0
 34 35  1  0  0  0
 35 36  2  0  0  0
 36 39  1  0  0  0
 39 40  1  0  0  0
 40 41  1  0  0  0
 41 42  1  0  0  0
 42 43  1  0  0  0
 43 44  1  0  0  0
 44 45  1  0  0  0
 45 46  1  0  0  0
 46 47  1  0  0  0
 47 48  1  0  0  0
 36 27  1  0  0  0
 48 43  1  0  0  0
 34 29  1  0  0  0
  6  1  1  0  0  0
 14 12  1  0  0  0
 25 19  1  0  0  0
  8 11  1  0  0  0
 17 18  1  0  0  0
M  END
> <minimizedAffinity>
17.11532

> <CNNscore>
0.4318756461

> <CNNaffinity>
7.2318854332

> <CNN_VS>
3.1232752800

> <CNNaffinity_variance>
0.3193322420

$$$$
[H]c1nc2c([H])c(OC([H])([H])C([H])([H])C([H])([H])N3C([H])([H])C([H])([H])OC([H])([H])C3([H])[H])c(OC([H])([H])[H])c([H])c2c(Oc2c([H])c([H])c(N([H])C(=O)C3(C(=O)N([H])c4c([H])c([H])c(F)c([H])c4[H])C([H])([H])C3([H])[H])c([H])c2F)c1[H]


 48 53  0  0  0  0  0  0  0  0999 V2000
    9.2899   44.6229  131.4927 C   0  0  0  0  0  0  0  0  0  0  0  0
   10.6315   44.7992  131.7942 C   0  0  0  0  0  0  0  0  0  0  0  0
   11.6338   44.4925  130.8709 C   0  0  0  0  0  0  0  0  0  0  0  0
   11.3507   44.0037  129.6184 C   0  0  0  0  0  0  0  0  0  0  0  0
   10.0117   43.8304  129.3235 C   0  0  0  0  0  0  0  0  0  0  0  0
    8.9989   44.1325  130.2404 C   0  0  0  0  0  0  0  0  0  0  0  0
    7.6919   43.9216  129.9080 F   0  0  0  0  0  0  0  0  0  0  0  0
   12.3620   43.6712  128.6694 N   0  0  0  0  0  0  0  0  0  0  0  0
   13.7522   43.7947  128.8802 C   0  0  0  0  0  0  0  0  0  0  0  0
   14.2527   44.2526  129.9252 O   0  0  0  0  0  0  0  0  0  0  0  0
   12.0519   43.2976  127.7368 H   0  0  0  0  0  0  0  0  0  0  0  0
   14.6712   43.3140  127.7763 C   0  0  0  0  0  0  0  0  0  0  0  0
   16.0263   44.0021  127.7287 C   0  0  0  0  0  0  0  0  0  0  0  0
   14.9228   44.4130  126.7710 C   0  0  0  0  0  0  0  0  0  0  0  0
   14.5013   41.9358  127.2961 C   0  0  0  0  0  0  0  0  0  0  0  0
   15.1813   41.0159  127.9128 O   0  0  0  0  0  0  0  0  0  0  0  0
   13.6922   41.5122  126.2329 N   0  0  0  0  0  0  0  0  0  0  0  0
   13.1698   42.2441  125.6605 H   0  0  0  0  0  0  0  0  0  0  0  0
   13.5439   40.1435  125.8287 C   0  0  0  0  0  0  0  0  0  0  0  0
   12.7702   39.3025  126.5570 C   0  0  0  0  0  0  0  0  0  0  0  0
   12.6635   37.9737  126.2027 C   0  0  0  0  0  0  0  0  0  0  0  0
   13.3612   37.5119  125.0889 C   0  0  0  0  0  0  0  0  0  0  0  0
   13.2952   36.2135  124.6810 F   0  0  0  0  0  0  0  0  0  0  0  0
   14.1592   38.3657  124.3320 C   0  0  0  0  0  0  0  0  0  0  0  0
   14.2288   39.6718  124.7276 C   0  0  0  0  0  0  0  0  0  0  0  0
    8.3297   44.9423  132.4571 O   0  0  0  0  0  0  0  0  0  0  0  0
    8.8484   48.8490  131.3444 C   0  0  0  0  0  0  0  0  0  0  0  0
    8.6770   47.5401  131.7407 C   0  0  0  0  0  0  0  0  0  0  0  0
    8.6732   47.2074  133.1028 C   0  0  0  0  0  0  0  0  0  0  0  0
    8.4935   45.8674  133.4713 C   0  0  0  0  0  0  0  0  0  0  0  0
    8.4861   45.5390  134.7973 C   0  0  0  0  0  0  0  0  0  0  0  0
    8.6608   46.5536  135.7385 C   0  0  0  0  0  0  0  0  0  0  0  0
    8.8308   47.8329  135.3530 N   0  0  0  0  0  0  0  0  0  0  0  0
    8.8392   48.1745  134.0653 C   0  0  0  0  0  0  0  0  0  0  0  0
    9.0123   49.4845  133.6828 C   0  0  0  0  0  0  0  0  0  0  0  0
    9.0161   49.8060  132.3568 C   0  0  0  0  0  0  0  0  0  0  0  0
    7.8935   48.8480  129.1009 C   0  0  0  0  0  0  0  0  0  0  0  0
    8.8574   49.2312  130.0291 O   0  0  0  0  0  0  0  0  0  0  0  0
    9.1966   51.1146  132.0157 O   0  0  0  0  0  0  0  0  0  0  0  0
    9.1477   52.1831  132.9396 C   0  0  0  0  0  0  0  0  0  0  0  0
   10.3666   52.2206  133.8230 C   0  0  0  0  0  0  0  0  0  0  0  0
   10.2815   53.4182  134.7184 C   0  0  0  0  0  0  0  0  0  0  0  0
   11.5721   53.8592  135.2157 N   0  0  0  0  0  0  0  0  0  0  0  0
   11.8159   55.1476  134.5267 C   0  0  0  0  0  0  0  0  0  0  0  0
   13.2137   55.6373  134.6982 C   0  0  0  0  0  0  0  0  0  0  0  0
   14.1780   54.6133  134.6651 O   0  0  0  0  0  0  0  0  0  0  0  0
   13.6542   53.5738  133.9237 C   0  0  0  0  0  0  0  0  0  0  0  0
   12.5634   52.8843  134.7458 C   0  0  0  0  0  0  0  0  0  0  0  0
 37 38  1  0  0  0
 38 27  1  0  0  0
 27 28  2  0  0  0
 28 29  1  0  0  0
 29 30  2  0  0  0
 30 26  1  0  0  0
 26  1  1  0  0  0
  1  2  2  0  0  0
  2  3  1  0  0  0
  3  4  2  0  0  0
  4  8  1  0  0  0
  8  9  1  0  0  0
  9 10  2  0  0  0
  9 12  1  0  0  0
 12 13  1  0  0  0
 13 14  1  0  0  0
 12 15  1  0  0  0
 15 16  2  0  0  0
 15 17  1  0  0  0
 17 19  1  0  0  0
 19 20  2  0  0  0
 20 21  1  0  0  0
 21 22  2  0  0  0
 22 23  1  0  0  0
 22 24  1  0  0  0
 24 25  2  0  0  0
  4  5  1  0  0  0
  5  6  2  0  0  0
  6  7  1  0  0  0
 30 31  1  0  0  0
 31 32  2  0  0  0
 32 33  1  0  0  0
 33 34  2  0  0  0
 34 35  1  0  0  0
 35 36  2  0  0  0
 36 39  1  0  0  0
 39 40  1  0  0  0
 40 41  1  0  0  0
 41 42  1  0  0  0
 42 43  1  0  0  0
 43 44  1  0  0  0
 44 45  1  0  0  0
 45 46  1  0  0  0
 46 47  1  0  0  0
 47 48  1  0  0  0
 36 27  1  0  0  0
 48 43  1  0  0  0
 34 29  1  0  0  0
  6  1  1  0  0  0
 14 12  1  0  0  0
 25 19  1  0  0  0
  8 11  1  0  0  0
 17 18  1  0  0  0
M  END
> <minimizedAffinity>
51.00974

> <CNNscore>
0.4188942313

> <CNNaffinity>
7.6121621132

> <CNN_VS>
3.1886909008

> <CNNaffinity_variance>
0.5482529402

$$$$
[H]c1nc2c([H])c(OC([H])([H])C([H])([H])C([H])([H])N3C([H])([H])C([H])([H])OC([H])([H])C3([H])[H])c(OC([H])([H])[H])c([H])c2c(Oc2c([H])c([H])c(N([H])C(=O)C3(C(=O)N([H])c4c([H])c([H])c(F)c([H])c4[H])C([H])([H])C3([H])[H])c([H])c2F)c1[H]


 48 53  0  0  0  0  0  0  0  0999 V2000
    7.7290   49.4610  129.7166 C   0  0  0  0  0  0  0  0  0  0  0  0
    7.2048   49.5095  128.4341 C   0  0  0  0  0  0  0  0  0  0  0  0
    6.9114   50.7245  127.8107 C   0  0  0  0  0  0  0  0  0  0  0  0
    7.1254   51.9339  128.4267 C   0  0  0  0  0  0  0  0  0  0  0  0
    7.6485   51.8792  129.7047 C   0  0  0  0  0  0  0  0  0  0  0  0
    7.9449   50.6684  130.3402 C   0  0  0  0  0  0  0  0  0  0  0  0
    8.4390   50.6682  131.6127 F   0  0  0  0  0  0  0  0  0  0  0  0
    6.8174   53.1827  127.8107 N   0  0  0  0  0  0  0  0  0  0  0  0
    7.6802   53.9098  126.9626 C   0  0  0  0  0  0  0  0  0  0  0  0
    8.8405   53.5493  126.6870 O   0  0  0  0  0  0  0  0  0  0  0  0
    5.8690   53.5971  127.9957 H   0  0  0  0  0  0  0  0  0  0  0  0
    7.1400   55.1809  126.3408 C   0  0  0  0  0  0  0  0  0  0  0  0
    8.1031   56.3575  126.3539 C   0  0  0  0  0  0  0  0  0  0  0  0
    6.9897   56.2655  127.3813 C   0  0  0  0  0  0  0  0  0  0  0  0
    6.1146   55.0497  125.2968 C   0  0  0  0  0  0  0  0  0  0  0  0
    5.1727   55.9452  125.2893 O   0  0  0  0  0  0  0  0  0  0  0  0
    6.0393   54.0510  124.3162 N   0  0  0  0  0  0  0  0  0  0  0  0
    6.7557   53.2618  124.3296 H   0  0  0  0  0  0  0  0  0  0  0  0
    5.0269   53.9929  123.3012 C   0  0  0  0  0  0  0  0  0  0  0  0
    3.7219   53.8903  123.6515 C   0  0  0  0  0  0  0  0  0  0  0  0
    2.7478   53.7835  122.6808 C   0  0  0  0  0  0  0  0  0  0  0  0
    3.1256   53.7824  121.3399 C   0  0  0  0  0  0  0  0  0  0  0  0
    2.2142   53.6858  120.3316 F   0  0  0  0  0  0  0  0  0  0  0  0
    4.4629   53.8875  120.9667 C   0  0  0  0  0  0  0  0  0  0  0  0
    5.3860   53.9909  121.9688 C   0  0  0  0  0  0  0  0  0  0  0  0
    7.9993   48.2164  130.2929 O   0  0  0  0  0  0  0  0  0  0  0  0
   10.4221   46.8193  133.2840 C   0  0  0  0  0  0  0  0  0  0  0  0
    9.6199   47.2790  132.2620 C   0  0  0  0  0  0  0  0  0  0  0  0
    9.8663   46.8886  130.9381 C   0  0  0  0  0  0  0  0  0  0  0  0
    9.0296   47.3721  129.9234 C   0  0  0  0  0  0  0  0  0  0  0  0
    9.2641   46.9919  128.6323 C   0  0  0  0  0  0  0  0  0  0  0  0
   10.3334   46.1351  128.3712 C   0  0  0  0  0  0  0  0  0  0  0  0
   11.1199   45.6866  129.3685 N   0  0  0  0  0  0  0  0  0  0  0  0
   10.9071   46.0437  130.6343 C   0  0  0  0  0  0  0  0  0  0  0  0
   11.7158   45.5786  131.6452 C   0  0  0  0  0  0  0  0  0  0  0  0
   11.4745   45.9602  132.9328 C   0  0  0  0  0  0  0  0  0  0  0  0
    9.3307   46.5209  135.4439 C   0  0  0  0  0  0  0  0  0  0  0  0
   10.2259   47.1652  134.5948 O   0  0  0  0  0  0  0  0  0  0  0  0
   12.3015   45.4836  133.9076 O   0  0  0  0  0  0  0  0  0  0  0  0
   12.3312   44.1332  134.3241 C   0  0  0  0  0  0  0  0  0  0  0  0
   11.0647   43.4036  133.9620 C   0  0  0  0  0  0  0  0  0  0  0  0
   11.3208   42.5545  132.7551 C   0  0  0  0  0  0  0  0  0  0  0  0
   10.1118   42.1916  132.0382 N   0  0  0  0  0  0  0  0  0  0  0  0
   10.3703   42.6048  130.6394 C   0  0  0  0  0  0  0  0  0  0  0  0
    9.1456   42.5616  129.7901 C   0  0  0  0  0  0  0  0  0  0  0  0
    7.9810   42.9826  130.4580 O   0  0  0  0  0  0  0  0  0  0  0  0
    8.3685   43.8410  131.4668 C   0  0  0  0  0  0  0  0  0  0  0  0
    9.0318   43.0256  132.5787 C   0  0  0  0  0  0  0  0  0  0  0  0
 37 38  1  0  0  0
 38 27  1  0  0  0
 27 28  2  0  0  0
 28 29  1  0  0  0
 29 30  2  0  0  0
 30 26  1  0  0  0
 26  1  1  0  0  0
  1  2  2  0  0  0
  2  3  1  0  0  0
  3  4  2  0  0  0
  4  8  1  0  0  0
  8  9  1  0  0  0
  9 10  2  0  0  0
  9 12  1  0  0  0
 12 13  1  0  0  0
 13 14  1  0  0  0
 12 15  1  0  0  0
 15 16  2  0  0  0
 15 17  1  0  0  0
 17 19  1  0  0  0
 19 20  2  0  0  0
 20 21  1  0  0  0
 21 22  2  0  0  0
 22 23  1  0  0  0
 22 24  1  0  0  0
 24 25  2  0  0  0
  4  5  1  0  0  0
  5  6  2  0  0  0
  6  7  1  0  0  0
 30 31  1  0  0  0
 31 32  2  0  0  0
 32 33  1  0  0  0
 33 34  2  0  0  0
 34 35  1  0  0  0
 35 36  2  0  0  0
 36 39  1  0  0  0
 39 40  1  0  0  0
 40 41  1  0  0  0
 41 42  1  0  0  0
 42 43  1  0  0  0
 43 44  1  0  0  0
 44 45  1  0  0  0
 45 46  1  0  0  0
 46 47  1  0  0  0
 47 48  1  0  0  0
 36 27  1  0  0  0
 48 43  1  0  0  0
 34 29  1  0  0  0
  6  1  1  0  0  0
 14 12  1  0  0  0
 25 19  1  0  0  0
  8 11  1  0  0  0
 17 18  1  0  0  0
M  END
> <minimizedAffinity>
3.07088

> <CNNscore>
0.3711976409

> <CNNaffinity>
7.7045454979

> <CNN_VS>
2.8599090576

> <CNNaffinity_variance>
0.2847693563

$$$$
[H]c1nc2c([H])c(OC([H])([H])C([H])([H])C([H])([H])N3C([H])([H])C([H])([H])OC([H])([H])C3([H])[H])c(OC([H])([H])[H])c([H])c2c(Oc2c([H])c([H])c(N([H])C(=O)C3(C(=O)N([H])c4c([H])c([H])c(F)c([H])c4[H])C([H])([H])C3([H])[H])c([H])c2F)c1[H]


 48 53  0  0  0  0  0  0  0  0999 V2000
    9.5739   45.1549  132.7162 C   0  0  0  0  0  0  0  0  0  0  0  0
    9.2377   43.8100  132.7051 C   0  0  0  0  0  0  0  0  0  0  0  0
    8.1141   43.3326  133.3838 C   0  0  0  0  0  0  0  0  0  0  0  0
    7.2813   44.1621  134.0953 C   0  0  0  0  0  0  0  0  0  0  0  0
    7.6212   45.5017  134.1023 C   0  0  0  0  0  0  0  0  0  0  0  0
    8.7449   45.9915  133.4277 C   0  0  0  0  0  0  0  0  0  0  0  0
    9.0499   47.3208  133.4850 F   0  0  0  0  0  0  0  0  0  0  0  0
    6.1390   43.6893  134.8061 N   0  0  0  0  0  0  0  0  0  0  0  0
    5.2752   44.4870  135.5871 C   0  0  0  0  0  0  0  0  0  0  0  0
    5.4443   45.7072  135.7733 O   0  0  0  0  0  0  0  0  0  0  0  0
    5.9141   42.6643  134.7417 H   0  0  0  0  0  0  0  0  0  0  0  0
    4.0669   43.8119  136.2022 C   0  0  0  0  0  0  0  0  0  0  0  0
    3.8444   44.1190  137.6747 C   0  0  0  0  0  0  0  0  0  0  0  0
    4.4880   42.8109  137.2522 C   0  0  0  0  0  0  0  0  0  0  0  0
    2.9420   43.4827  135.3162 C   0  0  0  0  0  0  0  0  0  0  0  0
    3.2193   42.7793  134.2591 O   0  0  0  0  0  0  0  0  0  0  0  0
    1.6029   43.8601  135.4857 N   0  0  0  0  0  0  0  0  0  0  0  0
    1.3462   44.4922  136.3048 H   0  0  0  0  0  0  0  0  0  0  0  0
    0.5404   43.4814  134.5991 C   0  0  0  0  0  0  0  0  0  0  0  0
    0.1411   44.3288  133.6199 C   0  0  0  0  0  0  0  0  0  0  0  0
   -0.9128   43.9922  132.7961 C   0  0  0  0  0  0  0  0  0  0  0  0
   -1.5577   42.7721  132.9863 C   0  0  0  0  0  0  0  0  0  0  0  0
   -2.6011   42.3757  132.2048 F   0  0  0  0  0  0  0  0  0  0  0  0
   -1.1570   41.8923  133.9884 C   0  0  0  0  0  0  0  0  0  0  0  0
   -0.1078   42.2760  134.7752 C   0  0  0  0  0  0  0  0  0  0  0  0
   10.7125   45.5759  132.0229 O   0  0  0  0  0  0  0  0  0  0  0  0
    8.3204   48.5880  130.6178 C   0  0  0  0  0  0  0  0  0  0  0  0
    9.1320   47.5697  131.0693 C   0  0  0  0  0  0  0  0  0  0  0  0
    9.9540   46.8698  130.1747 C   0  0  0  0  0  0  0  0  0  0  0  0
   10.7691   45.8421  130.6675 C   0  0  0  0  0  0  0  0  0  0  0  0
   11.5738   45.1594  129.8000 C   0  0  0  0  0  0  0  0  0  0  0  0
   11.5522   45.5109  128.4503 C   0  0  0  0  0  0  0  0  0  0  0  0
   10.7580   46.5042  128.0068 N   0  0  0  0  0  0  0  0  0  0  0  0
    9.9673   47.1835  128.8365 C   0  0  0  0  0  0  0  0  0  0  0  0
    9.1610   48.1970  128.3730 C   0  0  0  0  0  0  0  0  0  0  0  0
    8.3615   48.8765  129.2453 C   0  0  0  0  0  0  0  0  0  0  0  0
    7.9055   49.8490  132.6631 C   0  0  0  0  0  0  0  0  0  0  0  0
    7.5004   49.3067  131.4468 O   0  0  0  0  0  0  0  0  0  0  0  0
    7.5712   49.8712  128.7478 O   0  0  0  0  0  0  0  0  0  0  0  0
    8.0399   51.1676  128.4358 C   0  0  0  0  0  0  0  0  0  0  0  0
    6.9316   52.0674  127.9567 C   0  0  0  0  0  0  0  0  0  0  0  0
    7.1070   53.4232  128.5686 C   0  0  0  0  0  0  0  0  0  0  0  0
    7.0838   54.5016  127.5972 N   0  0  0  0  0  0  0  0  0  0  0  0
    6.1163   54.0550  126.5683 C   0  0  0  0  0  0  0  0  0  0  0  0
    6.1454   54.9038  125.3428 C   0  0  0  0  0  0  0  0  0  0  0  0
    7.4379   55.3222  124.9772 O   0  0  0  0  0  0  0  0  0  0  0  0
    8.3303   54.3925  125.4711 C   0  0  0  0  0  0  0  0  0  0  0  0
    8.4189   54.5543  126.9900 C   0  0  0  0  0  0  0  0  0  0  0  0
 37 38  1  0  0  0
 38 27  1  0  0  0
 27 28  2  0  0  0
 28 29  1  0  0  0
 29 30  2  0  0  0
 30 26  1  0  0  0
 26  1  1  0  0  0
  1  2  2  0  0  0
  2  3  1  0  0  0
  3  4  2  0  0  0
  4  8  1  0  0  0
  8  9  1  0  0  0
  9 10  2  0  0  0
  9 12  1  0  0  0
 12 13  1  0  0  0
 13 14  1  0  0  0
 12 15  1  0  0  0
 15 16  2  0  0  0
 15 17  1  0  0  0
 17 19  1  0  0  0
 19 20  2  0  0  0
 20 21  1  0  0  0
 21 22  2  0  0  0
 22 23  1  0  0  0
 22 24  1  0  0  0
 24 25  2  0  0  0
  4  5  1  0  0  0
  5  6  2  0  0  0
  6  7  1  0  0  0
 30 31  1  0  0  0
 31 32  2  0  0  0
 32 33  1  0  0  0
 33 34  2  0  0  0
 34 35  1  0  0  0
 35 36  2  0  0  0
 36 39  1  0  0  0
 39 40  1  0  0  0
 40 41  1  0  0  0
 41 42  1  0  0  0
 42 43  1  0  0  0
 43 44  1  0  0  0
 44 45  1  0  0  0
 45 46  1  0  0  0
 46 47  1  0  0  0
 47 48  1  0  0  0
 36 27  1  0  0  0
 48 43  1  0  0  0
 34 29  1  0  0  0
  6  1  1  0  0  0
 14 12  1  0  0  0
 25 19  1  0  0  0
  8 11  1  0  0  0
 17 18  1  0  0  0
M  END
> <minimizedAffinity>
50.62194

> <CNNscore>
0.3681820929

> <CNNaffinity>
7.3240165710

> <CNN_VS>
2.6965718269

> <CNNaffinity_variance>
0.7106595039

$$$$
[H]c1nc2c([H])c(OC([H])([H])C([H])([H])C([H])([H])N3C([H])([H])C([H])([H])OC([H])([H])C3([H])[H])c(OC([H])([H])[H])c([H])c2c(Oc2c([H])c([H])c(N([H])C(=O)C3(C(=O)N([H])c4c([H])c([H])c(F)c([H])c4[H])C([H])([H])C3([H])[H])c([H])c2F)c1[H]


 48 53  0  0  0  0  0  0  0  0999 V2000
    7.6585   49.5027  129.7299 C   0  0  0  0  0  0  0  0  0  0  0  0
    7.2031   49.4747  128.4208 C   0  0  0  0  0  0  0  0  0  0  0  0
    6.9050   50.6493  127.7261 C   0  0  0  0  0  0  0  0  0  0  0  0
    7.0465   51.8920  128.2947 C   0  0  0  0  0  0  0  0  0  0  0  0
    7.5012   51.9137  129.5996 C   0  0  0  0  0  0  0  0  0  0  0  0
    7.8016   50.7440  130.3062 C   0  0  0  0  0  0  0  0  0  0  0  0
    8.2259   50.8188  131.6015 F   0  0  0  0  0  0  0  0  0  0  0  0
    6.7324   53.1001  127.6051 N   0  0  0  0  0  0  0  0  0  0  0  0
    7.6753   54.0036  127.0693 C   0  0  0  0  0  0  0  0  0  0  0  0
    8.9079   53.8579  127.1775 O   0  0  0  0  0  0  0  0  0  0  0  0
    5.7165   53.3391  127.4776 H   0  0  0  0  0  0  0  0  0  0  0  0
    7.1423   55.1947  126.3004 C   0  0  0  0  0  0  0  0  0  0  0  0
    8.1170   56.3536  126.1623 C   0  0  0  0  0  0  0  0  0  0  0  0
    7.0115   56.4001  127.2014 C   0  0  0  0  0  0  0  0  0  0  0  0
    6.1068   54.9479  125.2877 C   0  0  0  0  0  0  0  0  0  0  0  0
    4.9414   55.4808  125.5041 O   0  0  0  0  0  0  0  0  0  0  0  0
    6.2417   54.1858  124.1191 N   0  0  0  0  0  0  0  0  0  0  0  0
    7.1618   53.6788  123.9388 H   0  0  0  0  0  0  0  0  0  0  0  0
    5.1993   54.0054  123.1499 C   0  0  0  0  0  0  0  0  0  0  0  0
    5.4960   54.0088  121.8277 C   0  0  0  0  0  0  0  0  0  0  0  0
    4.4923   53.8861  120.8895 C   0  0  0  0  0  0  0  0  0  0  0  0
    3.1739   53.7594  121.3214 C   0  0  0  0  0  0  0  0  0  0  0  0
    2.1361   53.6287  120.4483 F   0  0  0  0  0  0  0  0  0  0  0  0
    2.8557   53.7541  122.6769 C   0  0  0  0  0  0  0  0  0  0  0  0
    3.8887   53.8786  123.5627 C   0  0  0  0  0  0  0  0  0  0  0  0
    7.9370   48.2957  130.3779 O   0  0  0  0  0  0  0  0  0  0  0  0
    8.0891   44.8400  132.5697 C   0  0  0  0  0  0  0  0  0  0  0  0
    8.0514   45.9934  131.8162 C   0  0  0  0  0  0  0  0  0  0  0  0
    8.6749   46.0402  130.5613 C   0  0  0  0  0  0  0  0  0  0  0  0
    8.6149   47.2278  129.8200 C   0  0  0  0  0  0  0  0  0  0  0  0
    9.2184   47.2770  128.5955 C   0  0  0  0  0  0  0  0  0  0  0  0
    9.8765   46.1393  128.1280 C   0  0  0  0  0  0  0  0  0  0  0  0
    9.9164   45.0120  128.8639 N   0  0  0  0  0  0  0  0  0  0  0  0
    9.3326   44.9425  130.0595 C   0  0  0  0  0  0  0  0  0  0  0  0
    9.3785   43.7855  130.8021 C   0  0  0  0  0  0  0  0  0  0  0  0
    8.7714   43.7424  132.0233 C   0  0  0  0  0  0  0  0  0  0  0  0
    7.4579   45.7676  134.7344 C   0  0  0  0  0  0  0  0  0  0  0  0
    7.4952   44.7369  133.7997 O   0  0  0  0  0  0  0  0  0  0  0  0
    8.8433   42.5797  132.7334 O   0  0  0  0  0  0  0  0  0  0  0  0
    9.9961   42.1530  133.4311 C   0  0  0  0  0  0  0  0  0  0  0  0
   11.1858   43.0303  133.1435 C   0  0  0  0  0  0  0  0  0  0  0  0
   11.5509   43.7781  134.3888 C   0  0  0  0  0  0  0  0  0  0  0  0
   11.9385   45.1551  134.1418 N   0  0  0  0  0  0  0  0  0  0  0  0
   10.6852   45.9286  134.3002 C   0  0  0  0  0  0  0  0  0  0  0  0
   10.8132   47.3364  133.8259 C   0  0  0  0  0  0  0  0  0  0  0  0
   11.5968   47.4715  132.6653 O   0  0  0  0  0  0  0  0  0  0  0  0
   11.5346   46.2746  131.9810 C   0  0  0  0  0  0  0  0  0  0  0  0
   12.3596   45.2318  132.7380 C   0  0  0  0  0  0  0  0  0  0  0  0
 37 38  1  0  0  0
 38 27  1  0  0  0
 27 28  2  0  0  0
 28 29  1  0  0  0
 29 30  2  0  0  0
 30 26  1  0  0  0
 26  1  1  0  0  0
  1  2  2  0  0  0
  2  3  1  0  0  0
  3  4  2  0  0  0
  4  8  1  0  0  0
  8  9  1  0  0  0
  9 10  2  0  0  0
  9 12  1  0  0  0
 12 13  1  0  0  0
 13 14  1  0  0  0
 12 15  1  0  0  0
 15 16  2  0  0  0
 15 17  1  0  0  0
 17 19  1  0  0  0
 19 20  2  0  0  0
 20 21  1  0  0  0
 21 22  2  0  0  0
 22 23  1  0  0  0
 22 24  1  0  0  0
 24 25  2  0  0  0
  4  5  1  0  0  0
  5  6  2  0  0  0
  6  7  1  0  0  0
 30 31  1  0  0  0
 31 32  2  0  0  0
 32 33  1  0  0  0
 33 34  2  0  0  0
 34 35  1  0  0  0
 35 36  2  0  0  0
 36 39  1  0  0  0
 39 40  1  0  0  0
 40 41  1  0  0  0
 41 42  1  0  0  0
 42 43  1  0  0  0
 43 44  1  0  0  0
 44 45  1  0  0  0
 45 46  1  0  0  0
 46 47  1  0  0  0
 47 48  1  0  0  0
 36 27  1  0  0  0
 48 43  1  0  0  0
 34 29  1  0  0  0
  6  1  1  0  0  0
 14 12  1  0  0  0
 25 19  1  0  0  0
  8 11  1  0  0  0
 17 18  1  0  0  0
M  END
> <minimizedAffinity>
5.30240

> <CNNscore>
0.3405356705

> <CNNaffinity>
7.5086007118

> <CNN_VS>
2.5569462776

> <CNNaffinity_variance>
0.3714475036

$$$$
[H]c1nc2c([H])c(OC([H])([H])C([H])([H])C([H])([H])N3C([H])([H])C([H])([H])OC([H])([H])C3([H])[H])c(OC([H])([H])[H])c([H])c2c(Oc2c([H])c([H])c(N([H])C(=O)C3(C(=O)N([H])c4c([H])c([H])c(F)c([H])c4[H])C([H])([H])C3([H])[H])c([H])c2F)c1[H]


 48 53  0  0  0  0  0  0  0  0999 V2000
    7.3743   49.9903  129.8076 C   0  0  0  0  0  0  0  0  0  0  0  0
    7.1725   51.2553  130.3377 C   0  0  0  0  0  0  0  0  0  0  0  0
    7.0118   52.3739  129.5168 C   0  0  0  0  0  0  0  0  0  0  0  0
    7.0421   52.2864  128.1459 C   0  0  0  0  0  0  0  0  0  0  0  0
    7.2432   51.0229  127.6233 C   0  0  0  0  0  0  0  0  0  0  0  0
    7.4070   49.8953  128.4353 C   0  0  0  0  0  0  0  0  0  0  0  0
    7.6259   48.6724  127.8693 F   0  0  0  0  0  0  0  0  0  0  0  0
    6.8950   53.4202  127.2935 N   0  0  0  0  0  0  0  0  0  0  0  0
    7.7436   54.5480  127.2806 C   0  0  0  0  0  0  0  0  0  0  0  0
    8.7088   54.6929  128.0549 O   0  0  0  0  0  0  0  0  0  0  0  0
    6.0935   53.4181  126.6129 H   0  0  0  0  0  0  0  0  0  0  0  0
    7.4677   55.6176  126.2444 C   0  0  0  0  0  0  0  0  0  0  0  0
    8.6534   56.5122  125.9187 C   0  0  0  0  0  0  0  0  0  0  0  0
    7.5623   56.9953  126.8568 C   0  0  0  0  0  0  0  0  0  0  0  0
    6.4200   55.3521  125.2490 C   0  0  0  0  0  0  0  0  0  0  0  0
    5.4393   56.2031  125.1941 O   0  0  0  0  0  0  0  0  0  0  0  0
    6.3618   54.2687  124.3617 N   0  0  0  0  0  0  0  0  0  0  0  0
    7.1128   53.5145  124.4205 H   0  0  0  0  0  0  0  0  0  0  0  0
    5.3248   54.0789  123.3885 C   0  0  0  0  0  0  0  0  0  0  0  0
    4.0354   53.9585  123.7877 C   0  0  0  0  0  0  0  0  0  0  0  0
    3.0398   53.7258  122.8617 C   0  0  0  0  0  0  0  0  0  0  0  0
    3.3797   53.6167  121.5152 C   0  0  0  0  0  0  0  0  0  0  0  0
    2.4454   53.3932  120.5490 F   0  0  0  0  0  0  0  0  0  0  0  0
    4.7006   53.7389  121.0920 C   0  0  0  0  0  0  0  0  0  0  0  0
    5.6463   53.9691  122.0511 C   0  0  0  0  0  0  0  0  0  0  0  0
    7.5335   48.9073  130.6770 O   0  0  0  0  0  0  0  0  0  0  0  0
    9.9095   45.7163  129.7068 C   0  0  0  0  0  0  0  0  0  0  0  0
    9.1228   46.7941  130.0518 C   0  0  0  0  0  0  0  0  0  0  0  0
    9.4581   47.5911  131.1555 C   0  0  0  0  0  0  0  0  0  0  0  0
    8.6382   48.6811  131.4768 C   0  0  0  0  0  0  0  0  0  0  0  0
    8.9627   49.4622  132.5496 C   0  0  0  0  0  0  0  0  0  0  0  0
   10.1014   49.1428  133.2893 C   0  0  0  0  0  0  0  0  0  0  0  0
   10.8702   48.0886  132.9550 N   0  0  0  0  0  0  0  0  0  0  0  0
   10.5724   47.3155  131.9116 C   0  0  0  0  0  0  0  0  0  0  0  0
   11.3654   46.2420  131.5785 C   0  0  0  0  0  0  0  0  0  0  0  0
   11.0369   45.4674  130.5043 C   0  0  0  0  0  0  0  0  0  0  0  0
    8.8512   43.7562  128.7153 C   0  0  0  0  0  0  0  0  0  0  0  0
    9.6315   44.9062  128.6378 O   0  0  0  0  0  0  0  0  0  0  0  0
   11.8437   44.4078  130.2083 O   0  0  0  0  0  0  0  0  0  0  0  0
   11.5656   43.0755  130.5898 C   0  0  0  0  0  0  0  0  0  0  0  0
   11.4520   42.9293  132.0842 C   0  0  0  0  0  0  0  0  0  0  0  0
   10.0353   42.5913  132.4334 C   0  0  0  0  0  0  0  0  0  0  0  0
    9.5577   43.2692  133.6250 N   0  0  0  0  0  0  0  0  0  0  0  0
    8.8221   44.4484  133.1126 C   0  0  0  0  0  0  0  0  0  0  0  0
    8.4775   45.4238  134.1864 C   0  0  0  0  0  0  0  0  0  0  0  0
    9.4852   45.5739  135.1566 O   0  0  0  0  0  0  0  0  0  0  0  0
   10.6873   45.2533  134.5593 C   0  0  0  0  0  0  0  0  0  0  0  0
   10.7441   43.7386  134.3501 C   0  0  0  0  0  0  0  0  0  0  0  0
 37 38  1  0  0  0
 38 27  1  0  0  0
 27 28  2  0  0  0
 28 29  1  0  0  0
 29 30  2  0  0  0
 30 26  1  0  0  0
 26  1  1  0  0  0
  1  2  2  0  0  0
  2  3  1  0  0  0
  3  4  2  0  0  0
  4  8  1  0  0  0
  8  9  1  0  0  0
  9 10  2  0  0  0
  9 12  1  0  0  0
 12 13  1  0  0  0
 13 14  1  0  0  0
 12 15  1  0  0  0
 15 16  2  0  0  0
 15 17  1  0  0  0
 17 19  1  0  0  0
 19 20  2  0  0  0
 20 21  1  0  0  0
 21 22  2  0  0  0
 22 23  1  0  0  0
 22 24  1  0  0  0
 24 25  2  0  0  0
  4  5  1  0  0  0
  5  6  2  0  0  0
  6  7  1  0  0  0
 30 31  1  0  0  0
 31 32  2  0  0  0
 32 33  1  0  0  0
 33 34  2  0  0  0
 34 35  1  0  0  0
 35 36  2  0  0  0
 36 39  1  0  0  0
 39 40  1  0  0  0
 40 41  1  0  0  0
 41 42  1  0  0  0
 42 43  1  0  0  0
 43 44  1  0  0  0
 44 45  1  0  0  0
 45 46  1  0  0  0
 46 47  1  0  0  0
 47 48  1  0  0  0
 36 27  1  0  0  0
 48 43  1  0  0  0
 34 29  1  0  0  0
  6  1  1  0  0  0
 14 12  1  0  0  0
 25 19  1  0  0  0
  8 11  1  0  0  0
 17 18  1  0  0  0
M  END
> <minimizedAffinity>
0.92456

> <CNNscore>
0.3299359381

> <CNNaffinity>
7.5370087624

> <CNN_VS>
2.4867300987

> <CNNaffinity_variance>
0.7255057096

$$$$
[H]c1nc2c([H])c(OC([H])([H])C([H])([H])C([H])([H])N3C([H])([H])C([H])([H])OC([H])([H])C3([H])[H])c(OC([H])([H])[H])c([H])c2c(Oc2c([H])c([H])c(N([H])C(=O)C3(C(=O)N([H])c4c([H])c([H])c(F)c([H])c4[H])C([H])([H])C3([H])[H])c([H])c2F)c1[H]


 48 53  0  0  0  0  0  0  0  0999 V2000
    7.7160   49.4695  129.5391 C   0  0  0  0  0  0  0  0  0  0  0  0
    8.0301   50.6693  130.1584 C   0  0  0  0  0  0  0  0  0  0  0  0
    7.7980   51.8966  129.5331 C   0  0  0  0  0  0  0  0  0  0  0  0
    7.2472   51.9858  128.2775 C   0  0  0  0  0  0  0  0  0  0  0  0
    6.9358   50.7866  127.6653 C   0  0  0  0  0  0  0  0  0  0  0  0
    7.1650   49.5511  128.2809 C   0  0  0  0  0  0  0  0  0  0  0  0
    6.8606   48.3940  127.6238 F   0  0  0  0  0  0  0  0  0  0  0  0
    7.0176   53.2295  127.6185 N   0  0  0  0  0  0  0  0  0  0  0  0
    7.8191   53.7686  126.5893 C   0  0  0  0  0  0  0  0  0  0  0  0
    8.8551   53.2222  126.1648 O   0  0  0  0  0  0  0  0  0  0  0  0
    6.1806   53.7921  127.9161 H   0  0  0  0  0  0  0  0  0  0  0  0
    7.3649   55.0690  125.9592 C   0  0  0  0  0  0  0  0  0  0  0  0
    7.9686   55.3625  124.5948 C   0  0  0  0  0  0  0  0  0  0  0  0
    8.5174   56.0380  125.8383 C   0  0  0  0  0  0  0  0  0  0  0  0
    6.0394   55.5829  126.3302 C   0  0  0  0  0  0  0  0  0  0  0  0
    5.0538   54.7367  126.2889 O   0  0  0  0  0  0  0  0  0  0  0  0
    5.7252   56.8947  126.7110 N   0  0  0  0  0  0  0  0  0  0  0  0
    6.4936   57.6334  126.6940 H   0  0  0  0  0  0  0  0  0  0  0  0
    4.4126   57.3307  127.0923 C   0  0  0  0  0  0  0  0  0  0  0  0
    4.2385   58.0328  128.2382 C   0  0  0  0  0  0  0  0  0  0  0  0
    2.9733   58.4116  128.6361 C   0  0  0  0  0  0  0  0  0  0  0  0
    1.8816   58.0619  127.8445 C   0  0  0  0  0  0  0  0  0  0  0  0
    0.6066   58.4092  128.1763 F   0  0  0  0  0  0  0  0  0  0  0  0
    2.0469   57.3411  126.6647 C   0  0  0  0  0  0  0  0  0  0  0  0
    3.3217   56.9920  126.3181 C   0  0  0  0  0  0  0  0  0  0  0  0
    7.9743   48.2708  130.2105 O   0  0  0  0  0  0  0  0  0  0  0  0
   10.2593   46.9536  133.3430 C   0  0  0  0  0  0  0  0  0  0  0  0
    9.5038   47.3856  132.2743 C   0  0  0  0  0  0  0  0  0  0  0  0
    9.7911   46.9378  130.9771 C   0  0  0  0  0  0  0  0  0  0  0  0
    9.0013   47.3945  129.9135 C   0  0  0  0  0  0  0  0  0  0  0  0
    9.2757   46.9585  128.6482 C   0  0  0  0  0  0  0  0  0  0  0  0
   10.3374   46.0732  128.4614 C   0  0  0  0  0  0  0  0  0  0  0  0
   11.0782   45.6517  129.5043 N   0  0  0  0  0  0  0  0  0  0  0  0
   10.8261   46.0633  130.7461 C   0  0  0  0  0  0  0  0  0  0  0  0
   11.5884   45.6254  131.8041 C   0  0  0  0  0  0  0  0  0  0  0  0
   11.3073   46.0628  133.0657 C   0  0  0  0  0  0  0  0  0  0  0  0
    9.1190   46.7312  135.4868 C   0  0  0  0  0  0  0  0  0  0  0  0
   10.0217   47.3555  134.6308 O   0  0  0  0  0  0  0  0  0  0  0  0
   12.0889   45.6116  134.0889 O   0  0  0  0  0  0  0  0  0  0  0  0
   12.2654   44.2444  134.4010 C   0  0  0  0  0  0  0  0  0  0  0  0
   11.0667   43.4188  134.0151 C   0  0  0  0  0  0  0  0  0  0  0  0
   11.3673   42.6909  132.7411 C   0  0  0  0  0  0  0  0  0  0  0  0
   10.1787   42.2410  132.0397 N   0  0  0  0  0  0  0  0  0  0  0  0
   10.4137   42.6211  130.6274 C   0  0  0  0  0  0  0  0  0  0  0  0
    9.1922   42.4851  129.7832 C   0  0  0  0  0  0  0  0  0  0  0  0
    8.0076   42.8655  130.4399 O   0  0  0  0  0  0  0  0  0  0  0  0
    8.3498   43.7759  131.4189 C   0  0  0  0  0  0  0  0  0  0  0  0
    9.0564   43.0339  132.5553 C   0  0  0  0  0  0  0  0  0  0  0  0
 37 38  1  0  0  0
 38 27  1  0  0  0
 27 28  2  0  0  0
 28 29  1  0  0  0
 29 30  2  0  0  0
 30 26  1  0  0  0
 26  1  1  0  0  0
  1  2  2  0  0  0
  2  3  1  0  0  0
  3  4  2  0  0  0
  4  8  1  0  0  0
  8  9  1  0  0  0
  9 10  2  0  0  0
  9 12  1  0  0  0
 12 13  1  0  0  0
 13 14  1  0  0  0
 12 15  1  0  0  0
 15 16  2  0  0  0
 15 17  1  0  0  0
 17 19  1  0  0  0
 19 20  2  0  0  0
 20 21  1  0  0  0
 21 22  2  0  0  0
 22 23  1  0  0  0
 22 24  1  0  0  0
 24 25  2  0  0  0
  4  5  1  0  0  0
  5  6  2  0  0  0
  6  7  1  0  0  0
 30 31  1  0  0  0
 31 32  2  0  0  0
 32 33  1  0  0  0
 33 34  2  0  0  0
 34 35  1  0  0  0
 35 36  2  0  0  0
 36 39  1  0  0  0
 39 40  1  0  0  0
 40 41  1  0  0  0
 41 42  1  0  0  0
 42 43  1  0  0  0
 43 44  1  0  0  0
 44 45  1  0  0  0
 45 46  1  0  0  0
 46 47  1  0  0  0
 47 48  1  0  0  0
 36 27  1  0  0  0
 48 43  1  0  0  0
 34 29  1  0  0  0
  6  1  1  0  0  0
 14 12  1  0  0  0
 25 19  1  0  0  0
  8 11  1  0  0  0
 17 18  1  0  0  0
M  END
> <minimizedAffinity>
1.51554

> <CNNscore>
0.3244699538

> <CNNaffinity>
7.6121010780

> <CNN_VS>
2.4698979855

> <CNNaffinity_variance>
0.1526628435

$$$$
[H]c1nc2c([H])c(OC([H])([H])C([H])([H])C([H])([H])N3C([H])([H])C([H])([H])OC([H])([H])C3([H])[H])c(OC([H])([H])[H])c([H])c2c(Oc2c([H])c([H])c(N([H])C(=O)C3(C(=O)N([H])c4c([H])c([H])c(F)c([H])c4[H])C([H])([H])C3([H])[H])c([H])c2F)c1[H]


 48 53  0  0  0  0  0  0  0  0999 V2000
   11.9385   44.5277  134.0075 C   0  0  0  0  0  0  0  0  0  0  0  0
   13.3193   44.4573  134.1090 C   0  0  0  0  0  0  0  0  0  0  0  0
   13.9408   43.8348  135.1941 C   0  0  0  0  0  0  0  0  0  0  0  0
   13.2253   43.2583  136.2157 C   0  0  0  0  0  0  0  0  0  0  0  0
   11.8494   43.3313  136.1087 C   0  0  0  0  0  0  0  0  0  0  0  0
   11.2154   43.9535  135.0276 C   0  0  0  0  0  0  0  0  0  0  0  0
    9.8527   44.0188  134.9807 F   0  0  0  0  0  0  0  0  0  0  0  0
   13.8437   42.6323  137.3379 N   0  0  0  0  0  0  0  0  0  0  0  0
   15.2337   42.4620  137.5148 C   0  0  0  0  0  0  0  0  0  0  0  0
   16.0836   42.8135  136.6743 O   0  0  0  0  0  0  0  0  0  0  0  0
   13.2176   42.2715  138.1015 H   0  0  0  0  0  0  0  0  0  0  0  0
   15.7012   41.8414  138.8150 C   0  0  0  0  0  0  0  0  0  0  0  0
   15.2882   42.5973  140.0681 C   0  0  0  0  0  0  0  0  0  0  0  0
   16.6935   42.7414  139.5130 C   0  0  0  0  0  0  0  0  0  0  0  0
   15.9180   40.3885  138.8408 C   0  0  0  0  0  0  0  0  0  0  0  0
   15.8199   39.8050  139.9980 O   0  0  0  0  0  0  0  0  0  0  0  0
   16.2332   39.5683  137.7487 N   0  0  0  0  0  0  0  0  0  0  0  0
   16.3867   40.0183  136.7947 H   0  0  0  0  0  0  0  0  0  0  0  0
   16.4041   38.1462  137.8318 C   0  0  0  0  0  0  0  0  0  0  0  0
   17.6463   37.6086  137.7668 C   0  0  0  0  0  0  0  0  0  0  0  0
   17.8139   36.2397  137.7955 C   0  0  0  0  0  0  0  0  0  0  0  0
   16.6901   35.4221  137.8917 C   0  0  0  0  0  0  0  0  0  0  0  0
   16.7852   34.0634  137.9306 F   0  0  0  0  0  0  0  0  0  0  0  0
   15.4084   35.9618  137.9596 C   0  0  0  0  0  0  0  0  0  0  0  0
   15.3003   37.3236  137.9273 C   0  0  0  0  0  0  0  0  0  0  0  0
   11.3709   45.1669  132.9014 O   0  0  0  0  0  0  0  0  0  0  0  0
    9.4119   48.0060  130.6943 C   0  0  0  0  0  0  0  0  0  0  0  0
   10.0544   47.0357  131.4327 C   0  0  0  0  0  0  0  0  0  0  0  0
    9.5312   45.7368  131.5027 C   0  0  0  0  0  0  0  0  0  0  0  0
   10.2112   44.7736  132.2600 C   0  0  0  0  0  0  0  0  0  0  0  0
    9.7067   43.5059  132.3286 C   0  0  0  0  0  0  0  0  0  0  0  0
    8.5275   43.2173  131.6414 C   0  0  0  0  0  0  0  0  0  0  0  0
    7.8970   44.1648  130.9212 N   0  0  0  0  0  0  0  0  0  0  0  0
    8.3733   45.4064  130.8398 C   0  0  0  0  0  0  0  0  0  0  0  0
    7.7219   46.3660  130.1002 C   0  0  0  0  0  0  0  0  0  0  0  0
    8.2326   47.6296  130.0338 C   0  0  0  0  0  0  0  0  0  0  0  0
   10.8950   49.6781  129.7197 C   0  0  0  0  0  0  0  0  0  0  0  0
    9.8792   49.2892  130.5883 O   0  0  0  0  0  0  0  0  0  0  0  0
    7.5555   48.5559  129.2957 O   0  0  0  0  0  0  0  0  0  0  0  0
    6.9090   49.6843  129.8494 C   0  0  0  0  0  0  0  0  0  0  0  0
    7.5385   50.9743  129.3941 C   0  0  0  0  0  0  0  0  0  0  0  0
    6.6628   51.6020  128.3537 C   0  0  0  0  0  0  0  0  0  0  0  0
    6.9310   53.0140  128.1496 N   0  0  0  0  0  0  0  0  0  0  0  0
    5.8456   53.4731  127.2522 C   0  0  0  0  0  0  0  0  0  0  0  0
    6.0888   54.8389  126.7057 C   0  0  0  0  0  0  0  0  0  0  0  0
    7.4362   55.0865  126.3854 O   0  0  0  0  0  0  0  0  0  0  0  0
    8.0282   53.8701  126.1127 C   0  0  0  0  0  0  0  0  0  0  0  0
    8.2042   53.1035  127.4251 C   0  0  0  0  0  0  0  0  0  0  0  0
 37 38  1  0  0  0
 38 27  1  0  0  0
 27 28  2  0  0  0
 28 29  1  0  0  0
 29 30  2  0  0  0
 30 26  1  0  0  0
 26  1  1  0  0  0
  1  2  2  0  0  0
  2  3  1  0  0  0
  3  4  2  0  0  0
  4  8  1  0  0  0
  8  9  1  0  0  0
  9 10  2  0  0  0
  9 12  1  0  0  0
 12 13  1  0  0  0
 13 14  1  0  0  0
 12 15  1  0  0  0
 15 16  2  0  0  0
 15 17  1  0  0  0
 17 19  1  0  0  0
 19 20  2  0  0  0
 20 21  1  0  0  0
 21 22  2  0  0  0
 22 23  1  0  0  0
 22 24  1  0  0  0
 24 25  2  0  0  0
  4  5  1  0  0  0
  5  6  2  0  0  0
  6  7  1  0  0  0
 30 31  1  0  0  0
 31 32  2  0  0  0
 32 33  1  0  0  0
 33 34  2  0  0  0
 34 35  1  0  0  0
 35 36  2  0  0  0
 36 39  1  0  0  0
 39 40  1  0  0  0
 40 41  1  0  0  0
 41 42  1  0  0  0
 42 43  1  0  0  0
 43 44  1  0  0  0
 44 45  1  0  0  0
 45 46  1  0  0  0
 46 47  1  0  0  0
 47 48  1  0  0  0
 36 27  1  0  0  0
 48 43  1  0  0  0
 34 29  1  0  0  0
  6  1  1  0  0  0
 14 12  1  0  0  0
 25 19  1  0  0  0
  8 11  1  0  0  0
 17 18  1  0  0  0
M  END
> <minimizedAffinity>
17.99183

> <CNNscore>
0.3112111092

> <CNNaffinity>
7.4030332565

> <CNN_VS>
2.3039062023

> <CNNaffinity_variance>
0.1230553389

$$$$
[H]c1nc2c([H])c(OC([H])([H])C([H])([H])C([H])([H])N3C([H])([H])C([H])([H])OC([H])([H])C3([H])[H])c(OC([H])([H])[H])c([H])c2c(Oc2c([H])c([H])c(N([H])C(=O)C3(C(=O)N([H])c4c([H])c([H])c(F)c([H])c4[H])C([H])([H])C3([H])[H])c([H])c2F)c1[H]


 48 53  0  0  0  0  0  0  0  0999 V2000
   11.6462   45.1409  133.8392 C   0  0  0  0  0  0  0  0  0  0  0  0
   12.8546   45.7788  134.0728 C   0  0  0  0  0  0  0  0  0  0  0  0
   13.8912   45.1485  134.7651 C   0  0  0  0  0  0  0  0  0  0  0  0
   13.7754   43.8681  135.2497 C   0  0  0  0  0  0  0  0  0  0  0  0
   12.5688   43.2371  135.0135 C   0  0  0  0  0  0  0  0  0  0  0  0
   11.5226   43.8586  134.3228 C   0  0  0  0  0  0  0  0  0  0  0  0
   10.3417   43.1999  134.1356 F   0  0  0  0  0  0  0  0  0  0  0  0
   14.8179   43.2153  135.9715 N   0  0  0  0  0  0  0  0  0  0  0  0
   14.6732   42.5896  137.2284 C   0  0  0  0  0  0  0  0  0  0  0  0
   13.6063   42.5740  137.8717 O   0  0  0  0  0  0  0  0  0  0  0  0
   15.7732   43.1903  135.5330 H   0  0  0  0  0  0  0  0  0  0  0  0
   15.8836   41.8799  137.7986 C   0  0  0  0  0  0  0  0  0  0  0  0
   16.8192   42.7634  138.6086 C   0  0  0  0  0  0  0  0  0  0  0  0
   17.1558   42.4020  137.1734 C   0  0  0  0  0  0  0  0  0  0  0  0
   15.7659   40.4419  138.0765 C   0  0  0  0  0  0  0  0  0  0  0  0
   14.7800   40.0747  138.8397 O   0  0  0  0  0  0  0  0  0  0  0  0
   16.6147   39.4265  137.6150 N   0  0  0  0  0  0  0  0  0  0  0  0
   17.4720   39.6939  137.0407 H   0  0  0  0  0  0  0  0  0  0  0  0
   16.4301   38.0318  137.8967 C   0  0  0  0  0  0  0  0  0  0  0  0
   17.4950   37.1937  137.8938 C   0  0  0  0  0  0  0  0  0  0  0  0
   17.3179   35.8437  138.1143 C   0  0  0  0  0  0  0  0  0  0  0  0
   16.0318   35.3575  138.3388 C   0  0  0  0  0  0  0  0  0  0  0  0
   15.7876   34.0369  138.5688 F   0  0  0  0  0  0  0  0  0  0  0  0
   14.9294   36.2080  138.3448 C   0  0  0  0  0  0  0  0  0  0  0  0
   15.1622   37.5357  138.1211 C   0  0  0  0  0  0  0  0  0  0  0  0
   10.6421   45.8218  133.1446 O   0  0  0  0  0  0  0  0  0  0  0  0
    8.2899   47.4257  130.2012 C   0  0  0  0  0  0  0  0  0  0  0  0
    9.0854   46.9069  131.2000 C   0  0  0  0  0  0  0  0  0  0  0  0
    9.6242   47.7472  132.1845 C   0  0  0  0  0  0  0  0  0  0  0  0
   10.4264   47.1867  133.1873 C   0  0  0  0  0  0  0  0  0  0  0  0
   10.9511   48.0012  134.1504 C   0  0  0  0  0  0  0  0  0  0  0  0
   10.6692   49.3664  134.0979 C   0  0  0  0  0  0  0  0  0  0  0  0
    9.8938   49.8755  133.1213 N   0  0  0  0  0  0  0  0  0  0  0  0
    9.3710   49.0982  132.1739 C   0  0  0  0  0  0  0  0  0  0  0  0
    8.5794   49.6287  131.1819 C   0  0  0  0  0  0  0  0  0  0  0  0
    8.0565   48.8091  130.2244 C   0  0  0  0  0  0  0  0  0  0  0  0
    6.3667   46.5562  128.9802 C   0  0  0  0  0  0  0  0  0  0  0  0
    7.7351   46.6517  129.2166 O   0  0  0  0  0  0  0  0  0  0  0  0
    7.2813   49.3721  129.2532 O   0  0  0  0  0  0  0  0  0  0  0  0
    6.8633   50.7223  129.2635 C   0  0  0  0  0  0  0  0  0  0  0  0
    7.5926   51.5459  128.2352 C   0  0  0  0  0  0  0  0  0  0  0  0
    6.7067   52.6709  127.7959 C   0  0  0  0  0  0  0  0  0  0  0  0
    7.4399   53.8387  127.3421 N   0  0  0  0  0  0  0  0  0  0  0  0
    6.3906   54.8243  126.9928 C   0  0  0  0  0  0  0  0  0  0  0  0
    6.9291   56.0012  126.2525 C   0  0  0  0  0  0  0  0  0  0  0  0
    7.9396   55.6732  125.3303 O   0  0  0  0  0  0  0  0  0  0  0  0
    7.7449   54.3609  124.9504 C   0  0  0  0  0  0  0  0  0  0  0  0
    8.1407   53.4484  126.1132 C   0  0  0  0  0  0  0  0  0  0  0  0
 37 38  1  0  0  0
 38 27  1  0  0  0
 27 28  2  0  0  0
 28 29  1  0  0  0
 29 30  2  0  0  0
 30 26  1  0  0  0
 26  1  1  0  0  0
  1  2  2  0  0  0
  2  3  1  0  0  0
  3  4  2  0  0  0
  4  8  1  0  0  0
  8  9  1  0  0  0
  9 10  2  0  0  0
  9 12  1  0  0  0
 12 13  1  0  0  0
 13 14  1  0  0  0
 12 15  1  0  0  0
 15 16  2  0  0  0
 15 17  1  0  0  0
 17 19  1  0  0  0
 19 20  2  0  0  0
 20 21  1  0  0  0
 21 22  2  0  0  0
 22 23  1  0  0  0
 22 24  1  0  0  0
 24 25  2  0  0  0
  4  5  1  0  0  0
  5  6  2  0  0  0
  6  7  1  0  0  0
 30 31  1  0  0  0
 31 32  2  0  0  0
 32 33  1  0  0  0
 33 34  2  0  0  0
 34 35  1  0  0  0
 35 36  2  0  0  0
 36 39  1  0  0  0
 39 40  1  0  0  0
 40 41  1  0  0  0
 41 42  1  0  0  0
 42 43  1  0  0  0
 43 44  1  0  0  0
 44 45  1  0  0  0
 45 46  1  0  0  0
 46 47  1  0  0  0
 47 48  1  0  0  0
 36 27  1  0  0  0
 48 43  1  0  0  0
 34 29  1  0  0  0
  6  1  1  0  0  0
 14 12  1  0  0  0
 25 19  1  0  0  0
  8 11  1  0  0  0
 17 18  1  0  0  0
M  END
> <minimizedAffinity>
15.83440

> <CNNscore>
0.2988373935

> <CNNaffinity>
7.1802444458

> <CNN_VS>
2.1457254887

> <CNNaffinity_variance>
0.3030111790

$$$$
[H]c1c([H])c([H])c(C([H])([H])[C@@]2([H])C(=O)N3C([H])([H])C([H])([H])C([H])([H])[C@@]3([H])C(=O)N([H])[C@@]([H])(C([H])([H])c3c([H])n([H])c4c([H])c([H])c([H])c([H])c34)C(=O)N([H])[C@]([H])(C([H])([H])c3c([H])n([H])c4c([H])c([H])c([H])c([H])c34)C(=O)N([H])[C@@]([H])(C([H])([H])c3c([H])c([H])c([H])c([H])c3[H])C(=O)N([H])[C@@]([H])(C([H])(C([H])([H])[H])C([H])([H])[H])C(=O)N2[H])c([H])c1[H]


 71 78  0  0  0  0  0  0  0  0999 V2000
   12.5014   45.7460  133.5565 C   0  0  0  0  0  0  0  0  0  0  0  0
   12.5031   47.0071  132.8751 N   0  0  0  0  0  0  0  0  0  0  0  0
   11.5196   47.9793  132.6893 C   0  0  0  0  0  0  0  0  0  0  0  0
   11.1888   48.1472  131.4534 O   0  0  0  0  0  0  0  0  0  0  0  0
   10.7943   48.8470  133.6119 C   0  0  0  0  0  0  0  0  0  0  0  0
    9.9924   49.8780  132.9986 N   0  0  0  0  0  0  0  0  0  0  0  0
    9.3650   49.9960  131.7725 C   0  0  0  0  0  0  0  0  0  0  0  0
    9.9132   50.8485  130.9511 O   0  0  0  0  0  0  0  0  0  0  0  0
    8.1796   49.3414  131.1980 C   0  0  0  0  0  0  0  0  0  0  0  0
    8.3462   49.2227  129.7569 N   0  0  0  0  0  0  0  0  0  0  0  0
    8.5991   48.0964  128.9738 C   0  0  0  0  0  0  0  0  0  0  0  0
    9.7607   48.0985  128.3797 O   0  0  0  0  0  0  0  0  0  0  0  0
    7.7794   46.9100  128.7038 C   0  0  0  0  0  0  0  0  0  0  0  0
    7.8950   45.8699  129.7349 N   0  0  0  0  0  0  0  0  0  0  0  0
    8.2662   44.5252  129.4445 C   0  0  0  0  0  0  0  0  0  0  0  0
    7.6831   43.6454  130.1369 O   0  0  0  0  0  0  0  0  0  0  0  0
    9.2196   44.1227  128.4564 C   0  0  0  0  0  0  0  0  0  0  0  0
    8.9041   42.7042  127.9790 C   0  0  0  0  0  0  0  0  0  0  0  0
   10.0995   42.4323  127.1090 C   0  0  0  0  0  0  0  0  0  0  0  0
   11.0971   43.5441  127.4580 C   0  0  0  0  0  0  0  0  0  0  0  0
   10.6177   44.0201  128.7703 N   0  0  0  0  0  0  0  0  0  0  0  0
   11.3571   44.3074  129.9158 C   0  0  0  0  0  0  0  0  0  0  0  0
   12.2170   45.3002  129.8341 O   0  0  0  0  0  0  0  0  0  0  0  0
   11.3932   43.7112  131.2732 C   0  0  0  0  0  0  0  0  0  0  0  0
   10.7026   44.4491  132.2947 N   0  0  0  0  0  0  0  0  0  0  0  0
   11.2662   44.9504  133.5042 C   0  0  0  0  0  0  0  0  0  0  0  0
   10.6883   44.7103  134.6308 O   0  0  0  0  0  0  0  0  0  0  0  0
   13.4910   47.2027  132.4174 H   0  0  0  0  0  0  0  0  0  0  0  0
    9.8678   50.7491  133.6386 H   0  0  0  0  0  0  0  0  0  0  0  0
    8.2741   50.1721  129.2631 H   0  0  0  0  0  0  0  0  0  0  0  0
    7.6832   46.1800  130.6982 H   0  0  0  0  0  0  0  0  0  0  0  0
    9.6889   44.6417  132.1693 H   0  0  0  0  0  0  0  0  0  0  0  0
   13.9867   47.0508  134.9693 C   0  0  0  0  0  0  0  0  0  0  0  0
   13.0805   45.8112  134.9547 C   0  0  0  0  0  0  0  0  0  0  0  0
   13.9755   44.6319  135.1770 C   0  0  0  0  0  0  0  0  0  0  0  0
    9.9193   48.1726  134.6300 C   0  0  0  0  0  0  0  0  0  0  0  0
    9.0989   47.1477  133.9390 C   0  0  0  0  0  0  0  0  0  0  0  0
    8.9679   47.0239  132.6033 C   0  0  0  0  0  0  0  0  0  0  0  0
    8.1732   46.0527  132.0550 C   0  0  0  0  0  0  0  0  0  0  0  0
    7.4723   45.1585  132.8401 C   0  0  0  0  0  0  0  0  0  0  0  0
    7.6188   45.3000  134.2085 C   0  0  0  0  0  0  0  0  0  0  0  0
    8.4116   46.2688  134.7777 C   0  0  0  0  0  0  0  0  0  0  0  0
    6.8675   50.0449  131.4055 C   0  0  0  0  0  0  0  0  0  0  0  0
    6.1504   50.5151  130.2220 C   0  0  0  0  0  0  0  0  0  0  0  0
    4.9310   50.0003  129.7521 C   0  0  0  0  0  0  0  0  0  0  0  0
    4.6022   50.6531  128.6430 N   0  0  0  0  0  0  0  0  0  0  0  0
    5.5282   51.5637  128.3567 C   0  0  0  0  0  0  0  0  0  0  0  0
    5.6181   52.4705  127.3446 C   0  0  0  0  0  0  0  0  0  0  0  0
    6.6912   53.3361  127.2827 C   0  0  0  0  0  0  0  0  0  0  0  0
    7.6725   53.2878  128.2406 C   0  0  0  0  0  0  0  0  0  0  0  0
    7.5824   52.3834  129.2487 C   0  0  0  0  0  0  0  0  0  0  0  0
    6.5037   51.4931  129.3327 C   0  0  0  0  0  0  0  0  0  0  0  0
    3.7319   50.4530  128.0990 H   0  0  0  0  0  0  0  0  0  0  0  0
    6.3069   47.1860  128.4850 C   0  0  0  0  0  0  0  0  0  0  0  0
    5.4610   46.8823  129.6514 C   0  0  0  0  0  0  0  0  0  0  0  0
    5.6578   46.9087  130.9915 C   0  0  0  0  0  0  0  0  0  0  0  0
    4.5505   46.5393  131.6483 N   0  0  0  0  0  0  0  0  0  0  0  0
    3.6197   46.2678  130.7442 C   0  0  0  0  0  0  0  0  0  0  0  0
    2.3122   45.8473  130.9509 C   0  0  0  0  0  0  0  0  0  0  0  0
    1.5046   45.6203  129.8805 C   0  0  0  0  0  0  0  0  0  0  0  0
    2.0019   45.8127  128.6212 C   0  0  0  0  0  0  0  0  0  0  0  0
    3.3084   46.2327  128.4207 C   0  0  0  0  0  0  0  0  0  0  0  0
    4.1405   46.4677  129.4839 C   0  0  0  0  0  0  0  0  0  0  0  0
    4.4563   46.4800  132.7059 H   0  0  0  0  0  0  0  0  0  0  0  0
   11.0210   42.2288  131.2542 C   0  0  0  0  0  0  0  0  0  0  0  0
    9.6775   41.9223  131.7138 C   0  0  0  0  0  0  0  0  0  0  0  0
    9.3518   42.0335  133.0553 C   0  0  0  0  0  0  0  0  0  0  0  0
    8.0970   41.7297  133.5003 C   0  0  0  0  0  0  0  0  0  0  0  0
    7.1369   41.3109  132.6339 C   0  0  0  0  0  0  0  0  0  0  0  0
    7.4172   41.1858  131.2892 C   0  0  0  0  0  0  0  0  0  0  0  0
    8.6767   41.4907  130.8446 C   0  0  0  0  0  0  0  0  0  0  0  0
 33 34  1  0  0  0
 34 35  1  0  0  0
 34  1  1  0  0  0
  1  2  1  0  0  0
  2  3  1  0  0  0
  3  4  2  0  0  0
  3  5  1  0  0  0
  5 36  1  0  0  0
 36 37  1  0  0  0
 37 38  2  0  0  0
 38 39  1  0  0  0
 39 40  2  0  0  0
 40 41  1  0  0  0
 41 42  2  0  0  0
  5  6  1  0  0  0
  6  7  1  0  0  0
  7  8  2  0  0  0
  7  9  1  0  0  0
  9 43  1  0  0  0
 43 44  1  0  0  0
 44 45  2  0  0  0
 45 46  1  0  0  0
 46 47  1  0  0  0
 47 48  2  0  0  0
 48 49  1  0  0  0
 49 50  2  0  0  0
 50 51  1  0  0  0
 51 52  2  0  0  0
  9 10  1  0  0  0
 10 11  1  0  0  0
 11 12  2  0  0  0
 11 13  1  0  0  0
 13 54  1  0  0  0
 54 55  1  0  0  0
 55 56  2  0  0  0
 56 57  1  0  0  0
 57 58  1  0  0  0
 58 59  2  0  0  0
 59 60  1  0  0  0
 60 61  2  0  0  0
 61 62  1  0  0  0
 62 63  2  0  0  0
 13 14  1  0  0  0
 14 15  1  0  0  0
 15 16  2  0  0  0
 15 17  1  0  0  0
 17 18  1  0  0  0
 18 19  1  0  0  0
 19 20  1  0  0  0
 20 21  1  0  0  0
 21 22  1  0  0  0
 22 23  2  0  0  0
 22 24  1  0  0  0
 24 65  1  0  0  0
 65 66  1  0  0  0
 66 67  2  0  0  0
 67 68  1  0  0  0
 68 69  2  0  0  0
 69 70  1  0  0  0
 70 71  2  0  0  0
 24 25  1  0  0  0
 25 26  1  0  0  0
 26 27  2  0  0  0
 26  1  1  0  0  0
 42 37  1  0  0  0
 52 44  1  0  0  0
 63 55  1  0  0  0
 21 17  1  0  0  0
 71 66  1  0  0  0
 52 47  1  0  0  0
 63 58  1  0  0  0
  2 28  1  0  0  0
  6 29  1  0  0  0
 46 53  1  0  0  0
 10 30  1  0  0  0
 57 64  1  0  0  0
 14 31  1  0  0  0
 25 32  1  0  0  0
M  END
> <minimizedAffinity>
55.78082

> <CNNscore>
0.3661360443

> <CNNaffinity>
8.4448823929

> <CNN_VS>
3.0919759274

> <CNNaffinity_variance>
1.6660029888

$$$$
[H]c1c([H])c([H])c(C([H])([H])[C@@]2([H])C(=O)N3C([H])([H])C([H])([H])C([H])([H])[C@@]3([H])C(=O)N([H])[C@@]([H])(C([H])([H])c3c([H])n([H])c4c([H])c([H])c([H])c([H])c34)C(=O)N([H])[C@]([H])(C([H])([H])c3c([H])n([H])c4c([H])c([H])c([H])c([H])c34)C(=O)N([H])[C@@]([H])(C([H])([H])c3c([H])c([H])c([H])c([H])c3[H])C(=O)N([H])[C@@]([H])(C([H])(C([H])([H])[H])C([H])([H])[H])C(=O)N2[H])c([H])c1[H]


 71 78  0  0  0  0  0  0  0  0999 V2000
    9.6755   44.5116  127.6987 C   0  0  0  0  0  0  0  0  0  0  0  0
   10.9371   45.0300  128.1393 N   0  0  0  0  0  0  0  0  0  0  0  0
   11.5225   45.1390  129.4012 C   0  0  0  0  0  0  0  0  0  0  0  0
   11.7275   46.3584  129.7700 O   0  0  0  0  0  0  0  0  0  0  0  0
   11.9532   44.1503  130.3847 C   0  0  0  0  0  0  0  0  0  0  0  0
   12.7131   44.6673  131.4972 N   0  0  0  0  0  0  0  0  0  0  0  0
   12.7674   45.8970  132.1262 C   0  0  0  0  0  0  0  0  0  0  0  0
   13.8583   46.5795  131.9117 O   0  0  0  0  0  0  0  0  0  0  0  0
   11.8242   46.6031  133.0069 C   0  0  0  0  0  0  0  0  0  0  0  0
   11.9633   48.0384  132.8093 N   0  0  0  0  0  0  0  0  0  0  0  0
   11.1098   48.9429  132.1776 C   0  0  0  0  0  0  0  0  0  0  0  0
   11.5943   49.4774  131.0904 O   0  0  0  0  0  0  0  0  0  0  0  0
    9.7596   49.3963  132.5293 C   0  0  0  0  0  0  0  0  0  0  0  0
    8.6974   48.4983  132.0563 N   0  0  0  0  0  0  0  0  0  0  0  0
    7.6168   48.9362  131.2372 C   0  0  0  0  0  0  0  0  0  0  0  0
    6.5055   48.3866  131.4748 O   0  0  0  0  0  0  0  0  0  0  0  0
    7.7057   49.9213  130.2032 C   0  0  0  0  0  0  0  0  0  0  0  0
    6.3428   50.5856  130.0013 C   0  0  0  0  0  0  0  0  0  0  0  0
    6.6214   51.4261  128.7865 C   0  0  0  0  0  0  0  0  0  0  0  0
    7.9538   50.8954  128.2420 C   0  0  0  0  0  0  0  0  0  0  0  0
    8.0547   49.5579  128.8579 N   0  0  0  0  0  0  0  0  0  0  0  0
    8.4261   48.3523  128.2661 C   0  0  0  0  0  0  0  0  0  0  0  0
    9.6573   48.2698  127.8089 O   0  0  0  0  0  0  0  0  0  0  0  0
    7.7049   47.0795  128.0232 C   0  0  0  0  0  0  0  0  0  0  0  0
    8.0142   46.0073  128.9287 N   0  0  0  0  0  0  0  0  0  0  0  0
    8.5146   44.7199  128.5766 C   0  0  0  0  0  0  0  0  0  0  0  0
    7.9413   43.6602  129.0336 O   0  0  0  0  0  0  0  0  0  0  0  0
   11.5228   45.4133  127.2828 H   0  0  0  0  0  0  0  0  0  0  0  0
   13.3933   43.9304  131.9194 H   0  0  0  0  0  0  0  0  0  0  0  0
   12.8852   48.4130  133.2097 H   0  0  0  0  0  0  0  0  0  0  0  0
    8.7836   47.5149  132.3634 H   0  0  0  0  0  0  0  0  0  0  0  0
    7.8573   46.1548  129.9455 H   0  0  0  0  0  0  0  0  0  0  0  0
    9.5115   42.1909  128.4001 C   0  0  0  0  0  0  0  0  0  0  0  0
    9.7514   43.0908  127.1792 C   0  0  0  0  0  0  0  0  0  0  0  0
   11.1453   42.8063  126.7130 C   0  0  0  0  0  0  0  0  0  0  0  0
   10.8879   43.2659  130.9677 C   0  0  0  0  0  0  0  0  0  0  0  0
   11.0814   43.2037  132.4372 C   0  0  0  0  0  0  0  0  0  0  0  0
   12.2501   43.4008  133.0792 C   0  0  0  0  0  0  0  0  0  0  0  0
   12.3354   43.3075  134.4428 C   0  0  0  0  0  0  0  0  0  0  0  0
   11.2341   43.0090  135.2210 C   0  0  0  0  0  0  0  0  0  0  0  0
   10.0433   42.8104  134.5455 C   0  0  0  0  0  0  0  0  0  0  0  0
    9.9378   42.8994  133.1773 C   0  0  0  0  0  0  0  0  0  0  0  0
   11.9937   46.3710  134.4823 C   0  0  0  0  0  0  0  0  0  0  0  0
   12.5328   47.4646  135.2879 C   0  0  0  0  0  0  0  0  0  0  0  0
   11.9164   48.7115  135.4831 C   0  0  0  0  0  0  0  0  0  0  0  0
   12.7108   49.4552  136.2448 N   0  0  0  0  0  0  0  0  0  0  0  0
   13.8084   48.7745  136.5621 C   0  0  0  0  0  0  0  0  0  0  0  0
   14.8863   49.1071  137.3251 C   0  0  0  0  0  0  0  0  0  0  0  0
   15.9040   48.1960  137.5219 C   0  0  0  0  0  0  0  0  0  0  0  0
   15.8348   46.9504  136.9503 C   0  0  0  0  0  0  0  0  0  0  0  0
   14.7603   46.6198  136.1895 C   0  0  0  0  0  0  0  0  0  0  0  0
   13.7151   47.5277  135.9737 C   0  0  0  0  0  0  0  0  0  0  0  0
   12.4746   50.4318  136.5340 H   0  0  0  0  0  0  0  0  0  0  0  0
    9.5332   49.6473  134.0050 C   0  0  0  0  0  0  0  0  0  0  0  0
    8.8209   48.5590  134.6952 C   0  0  0  0  0  0  0  0  0  0  0  0
    8.2639   48.4261  135.9230 C   0  0  0  0  0  0  0  0  0  0  0  0
    7.7186   47.2124  136.0759 N   0  0  0  0  0  0  0  0  0  0  0  0
    7.9139   46.5403  134.9499 C   0  0  0  0  0  0  0  0  0  0  0  0
    7.5251   45.2434  134.6403 C   0  0  0  0  0  0  0  0  0  0  0  0
    7.8223   44.7292  133.4169 C   0  0  0  0  0  0  0  0  0  0  0  0
    8.4997   45.5052  132.5175 C   0  0  0  0  0  0  0  0  0  0  0  0
    8.8857   46.7997  132.8320 C   0  0  0  0  0  0  0  0  0  0  0  0
    8.5972   47.3391  134.0584 C   0  0  0  0  0  0  0  0  0  0  0  0
    7.2232   46.8690  136.9519 H   0  0  0  0  0  0  0  0  0  0  0  0
    6.2021   47.3000  127.8520 C   0  0  0  0  0  0  0  0  0  0  0  0
    5.3859   46.9080  128.9880 C   0  0  0  0  0  0  0  0  0  0  0  0
    5.9775   46.4416  130.1500 C   0  0  0  0  0  0  0  0  0  0  0  0
    5.2186   46.0528  131.2167 C   0  0  0  0  0  0  0  0  0  0  0  0
    3.8618   46.1157  131.1616 C   0  0  0  0  0  0  0  0  0  0  0  0
    3.2303   46.5739  130.0241 C   0  0  0  0  0  0  0  0  0  0  0  0
    3.9933   46.9633  128.9549 C   0  0  0  0  0  0  0  0  0  0  0  0
 33 34  1  0  0  0
 34 35  1  0  0  0
 34  1  1  0  0  0
  1  2  1  0  0  0
  2  3  1  0  0  0
  3  4  2  0  0  0
  3  5  1  0  0  0
  5 36  1  0  0  0
 36 37  1  0  0  0
 37 38  2  0  0  0
 38 39  1  0  0  0
 39 40  2  0  0  0
 40 41  1  0  0  0
 41 42  2  0  0  0
  5  6  1  0  0  0
  6  7  1  0  0  0
  7  8  2  0  0  0
  7  9  1  0  0  0
  9 43  1  0  0  0
 43 44  1  0  0  0
 44 45  2  0  0  0
 45 46  1  0  0  0
 46 47  1  0  0  0
 47 48  2  0  0  0
 48 49  1  0  0  0
 49 50  2  0  0  0
 50 51  1  0  0  0
 51 52  2  0  0  0
  9 10  1  0  0  0
 10 11  1  0  0  0
 11 12  2  0  0  0
 11 13  1  0  0  0
 13 54  1  0  0  0
 54 55  1  0  0  0
 55 56  2  0  0  0
 56 57  1  0  0  0
 57 58  1  0  0  0
 58 59  2  0  0  0
 59 60  1  0  0  0
 60 61  2  0  0  0
 61 62  1  0  0  0
 62 63  2  0  0  0
 13 14  1  0  0  0
 14 15  1  0  0  0
 15 16  2  0  0  0
 15 17  1  0  0  0
 17 18  1  0  0  0
 18 19  1  0  0  0
 19 20  1  0  0  0
 20 21  1  0  0  0
 21 22  1  0  0  0
 22 23  2  0  0  0
 22 24  1  0  0  0
 24 65  1  0  0  0
 65 66  1  0  0  0
 66 67  2  0  0  0
 67 68  1  0  0  0
 68 69  2  0  0  0
 69 70  1  0  0  0
 70 71  2  0  0  0
 24 25  1  0  0  0
 25 26  1  0  0  0
 26 27  2  0  0  0
 26  1  1  0  0  0
 42 37  1  0  0  0
 52 44  1  0  0  0
 63 55  1  0  0  0
 21 17  1  0  0  0
 71 66  1  0  0  0
 52 47  1  0  0  0
 63 58  1  0  0  0
  2 28  1  0  0  0
  6 29  1  0  0  0
 46 53  1  0  0  0
 10 30  1  0  0  0
 57 64  1  0  0  0
 14 31  1  0  0  0
 25 32  1  0  0  0
M  END
> <minimizedAffinity>
57.19283

> <CNNscore>
0.3610086441

> <CNNaffinity>
8.3851556778

> <CNN_VS>
3.0271136761

> <CNNaffinity_variance>
2.1090586185

$$$$
[H]c1c([H])c([H])c(C([H])([H])[C@@]2([H])C(=O)N3C([H])([H])C([H])([H])C([H])([H])[C@@]3([H])C(=O)N([H])[C@@]([H])(C([H])([H])c3c([H])n([H])c4c([H])c([H])c([H])c([H])c34)C(=O)N([H])[C@]([H])(C([H])([H])c3c([H])n([H])c4c([H])c([H])c([H])c([H])c34)C(=O)N([H])[C@@]([H])(C([H])([H])c3c([H])c([H])c([H])c([H])c3[H])C(=O)N([H])[C@@]([H])(C([H])(C([H])([H])[H])C([H])([H])[H])C(=O)N2[H])c([H])c1[H]


 71 78  0  0  0  0  0  0  0  0999 V2000
    9.7586   47.6317  126.3928 C   0  0  0  0  0  0  0  0  0  0  0  0
   11.0209   47.0834  126.7938 N   0  0  0  0  0  0  0  0  0  0  0  0
   11.3657   45.9346  127.5069 C   0  0  0  0  0  0  0  0  0  0  0  0
   11.9510   46.1823  128.6299 O   0  0  0  0  0  0  0  0  0  0  0  0
   11.2012   44.5102  127.2348 C   0  0  0  0  0  0  0  0  0  0  0  0
   11.8870   43.6192  128.1392 N   0  0  0  0  0  0  0  0  0  0  0  0
   12.2927   43.7234  129.4565 C   0  0  0  0  0  0  0  0  0  0  0  0
   13.5809   43.8333  129.6307 O   0  0  0  0  0  0  0  0  0  0  0  0
   11.5489   43.7341  130.7255 C   0  0  0  0  0  0  0  0  0  0  0  0
   12.2590   44.5579  131.6928 N   0  0  0  0  0  0  0  0  0  0  0  0
   11.9448   45.8198  132.1973 C   0  0  0  0  0  0  0  0  0  0  0  0
   12.7841   46.7616  131.8641 O   0  0  0  0  0  0  0  0  0  0  0  0
   10.8308   46.2675  133.0405 C   0  0  0  0  0  0  0  0  0  0  0  0
    9.6102   46.5776  132.2840 N   0  0  0  0  0  0  0  0  0  0  0  0
    8.9456   47.8356  132.3622 C   0  0  0  0  0  0  0  0  0  0  0  0
    7.6856   47.7818  132.3091 O   0  0  0  0  0  0  0  0  0  0  0  0
    9.5889   49.1070  132.4930 C   0  0  0  0  0  0  0  0  0  0  0  0
    8.6438   50.0988  133.1731 C   0  0  0  0  0  0  0  0  0  0  0  0
    9.4363   51.3696  133.0444 C   0  0  0  0  0  0  0  0  0  0  0  0
   10.5393   51.0407  132.0303 C   0  0  0  0  0  0  0  0  0  0  0  0
   10.0088   49.8503  131.3376 N   0  0  0  0  0  0  0  0  0  0  0  0
    9.9914   49.5726  129.9722 C   0  0  0  0  0  0  0  0  0  0  0  0
   11.1582   49.4373  129.3790 O   0  0  0  0  0  0  0  0  0  0  0  0
    8.8952   49.3892  128.9905 C   0  0  0  0  0  0  0  0  0  0  0  0
    8.6027   48.0286  128.6325 N   0  0  0  0  0  0  0  0  0  0  0  0
    8.6279   47.4748  127.3193 C   0  0  0  0  0  0  0  0  0  0  0  0
    7.6209   46.7957  126.8885 O   0  0  0  0  0  0  0  0  0  0  0  0
   11.8525   47.7315  126.4593 H   0  0  0  0  0  0  0  0  0  0  0  0
   12.1459   42.6691  127.6763 H   0  0  0  0  0  0  0  0  0  0  0  0
   13.1655   44.0937  132.0293 H   0  0  0  0  0  0  0  0  0  0  0  0
    9.2572   45.8120  131.6854 H   0  0  0  0  0  0  0  0  0  0  0  0
    8.3337   47.3637  129.3847 H   0  0  0  0  0  0  0  0  0  0  0  0
   10.4188   46.2741  124.4887 C   0  0  0  0  0  0  0  0  0  0  0  0
    9.3783   47.2980  124.9651 C   0  0  0  0  0  0  0  0  0  0  0  0
    9.5570   48.5115  124.1069 C   0  0  0  0  0  0  0  0  0  0  0  0
    9.7926   44.0011  127.1177 C   0  0  0  0  0  0  0  0  0  0  0  0
    9.1815   43.9954  128.4695 C   0  0  0  0  0  0  0  0  0  0  0  0
    8.8657   45.0915  129.1875 C   0  0  0  0  0  0  0  0  0  0  0  0
    8.3169   44.9872  130.4379 C   0  0  0  0  0  0  0  0  0  0  0  0
    8.0619   43.7608  131.0195 C   0  0  0  0  0  0  0  0  0  0  0  0
    8.3918   42.6470  130.2682 C   0  0  0  0  0  0  0  0  0  0  0  0
    8.9437   42.7313  129.0116 C   0  0  0  0  0  0  0  0  0  0  0  0
   11.3479   42.3998  131.3878 C   0  0  0  0  0  0  0  0  0  0  0  0
   10.8793   42.3884  132.7720 C   0  0  0  0  0  0  0  0  0  0  0  0
    9.6322   41.9084  133.2046 C   0  0  0  0  0  0  0  0  0  0  0  0
    9.5490   42.0871  134.5181 N   0  0  0  0  0  0  0  0  0  0  0  0
   10.6628   42.6529  134.9742 C   0  0  0  0  0  0  0  0  0  0  0  0
   11.0432   43.0084  136.2326 C   0  0  0  0  0  0  0  0  0  0  0  0
   12.2850   43.5704  136.4486 C   0  0  0  0  0  0  0  0  0  0  0  0
   13.1427   43.7734  135.3969 C   0  0  0  0  0  0  0  0  0  0  0  0
   12.7626   43.4193  134.1429 C   0  0  0  0  0  0  0  0  0  0  0  0
   11.5067   42.8483  133.8977 C   0  0  0  0  0  0  0  0  0  0  0  0
    8.7121   41.8102  135.0805 H   0  0  0  0  0  0  0  0  0  0  0  0
   10.4556   45.3207  134.1606 C   0  0  0  0  0  0  0  0  0  0  0  0
    9.0494   45.4229  134.5853 C   0  0  0  0  0  0  0  0  0  0  0  0
    7.9806   44.5933  134.5160 C   0  0  0  0  0  0  0  0  0  0  0  0
    6.8952   45.1596  135.0590 N   0  0  0  0  0  0  0  0  0  0  0  0
    7.2438   46.3646  135.4883 C   0  0  0  0  0  0  0  0  0  0  0  0
    6.4548   47.3177  136.1192 C   0  0  0  0  0  0  0  0  0  0  0  0
    7.0052   48.5057  136.4869 C   0  0  0  0  0  0  0  0  0  0  0  0
    8.3280   48.7336  136.2253 C   0  0  0  0  0  0  0  0  0  0  0  0
    9.1112   47.7781  135.5950 C   0  0  0  0  0  0  0  0  0  0  0  0
    8.5784   46.5739  135.2154 C   0  0  0  0  0  0  0  0  0  0  0  0
    5.9350   44.7071  135.1233 H   0  0  0  0  0  0  0  0  0  0  0  0
    7.6481   50.1857  129.3737 C   0  0  0  0  0  0  0  0  0  0  0  0
    6.4170   49.4170  129.4328 C   0  0  0  0  0  0  0  0  0  0  0  0
    5.1891   50.0574  129.4435 C   0  0  0  0  0  0  0  0  0  0  0  0
    4.0266   49.3448  129.5178 C   0  0  0  0  0  0  0  0  0  0  0  0
    4.0488   47.9872  129.5824 C   0  0  0  0  0  0  0  0  0  0  0  0
    5.2492   47.3080  129.5744 C   0  0  0  0  0  0  0  0  0  0  0  0
    6.4146   48.0246  129.5001 C   0  0  0  0  0  0  0  0  0  0  0  0
 33 34  1  0  0  0
 34 35  1  0  0  0
 34  1  1  0  0  0
  1  2  1  0  0  0
  2  3  1  0  0  0
  3  4  2  0  0  0
  3  5  1  0  0  0
  5 36  1  0  0  0
 36 37  1  0  0  0
 37 38  2  0  0  0
 38 39  1  0  0  0
 39 40  2  0  0  0
 40 41  1  0  0  0
 41 42  2  0  0  0
  5  6  1  0  0  0
  6  7  1  0  0  0
  7  8  2  0  0  0
  7  9  1  0  0  0
  9 43  1  0  0  0
 43 44  1  0  0  0
 44 45  2  0  0  0
 45 46  1  0  0  0
 46 47  1  0  0  0
 47 48  2  0  0  0
 48 49  1  0  0  0
 49 50  2  0  0  0
 50 51  1  0  0  0
 51 52  2  0  0  0
  9 10  1  0  0  0
 10 11  1  0  0  0
 11 12  2  0  0  0
 11 13  1  0  0  0
 13 54  1  0  0  0
 54 55  1  0  0  0
 55 56  2  0  0  0
 56 57  1  0  0  0
 57 58  1  0  0  0
 58 59  2  0  0  0
 59 60  1  0  0  0
 60 61  2  0  0  0
 61 62  1  0  0  0
 62 63  2  0  0  0
 13 14  1  0  0  0
 14 15  1  0  0  0
 15 16  2  0  0  0
 15 17  1  0  0  0
 17 18  1  0  0  0
 18 19  1  0  0  0
 19 20  1  0  0  0
 20 21  1  0  0  0
 21 22  1  0  0  0
 22 23  2  0  0  0
 22 24  1  0  0  0
 24 65  1  0  0  0
 65 66  1  0  0  0
 66 67  2  0  0  0
 67 68  1  0  0  0
 68 69  2  0  0  0
 69 70  1  0  0  0
 70 71  2  0  0  0
 24 25  1  0  0  0
 25 26  1  0  0  0
 26 27  2  0  0  0
 26  1  1  0  0  0
 42 37  1  0  0  0
 52 44  1  0  0  0
 63 55  1  0  0  0
 21 17  1  0  0  0
 71 66  1  0  0  0
 52 47  1  0  0  0
 63 58  1  0  0  0
  2 28  1  0  0  0
  6 29  1  0  0  0
 46 53  1  0  0  0
 10 30  1  0  0  0
 57 64  1  0  0  0
 14 31  1  0  0  0
 25 32  1  0  0  0
M  END
> <minimizedAffinity>
62.02623

> <CNNscore>
0.3528630435

> <CNNaffinity>
8.4290237427

> <CNN_VS>
2.9742910862

> <CNNaffinity_variance>
2.3320367336

$$$$
[H]c1c([H])c([H])c(C([H])([H])[C@@]2([H])C(=O)N3C([H])([H])C([H])([H])C([H])([H])[C@@]3([H])C(=O)N([H])[C@@]([H])(C([H])([H])c3c([H])n([H])c4c([H])c([H])c([H])c([H])c34)C(=O)N([H])[C@]([H])(C([H])([H])c3c([H])n([H])c4c([H])c([H])c([H])c([H])c34)C(=O)N([H])[C@@]([H])(C([H])([H])c3c([H])c([H])c([H])c([H])c3[H])C(=O)N([H])[C@@]([H])(C([H])(C([H])([H])[H])C([H])([H])[H])C(=O)N2[H])c([H])c1[H]


 71 78  0  0  0  0  0  0  0  0999 V2000
    9.8698   47.4162  126.8102 C   0  0  0  0  0  0  0  0  0  0  0  0
   11.2041   47.0033  127.1327 N   0  0  0  0  0  0  0  0  0  0  0  0
   11.7058   45.9435  127.8891 C   0  0  0  0  0  0  0  0  0  0  0  0
   12.3596   46.3220  128.9352 O   0  0  0  0  0  0  0  0  0  0  0  0
   11.6433   44.4939  127.7312 C   0  0  0  0  0  0  0  0  0  0  0  0
   12.4773   43.7322  128.6293 N   0  0  0  0  0  0  0  0  0  0  0  0
   12.9815   43.9685  129.8945 C   0  0  0  0  0  0  0  0  0  0  0  0
   14.2654   44.1946  129.9442 O   0  0  0  0  0  0  0  0  0  0  0  0
   12.3486   44.0157  131.2215 C   0  0  0  0  0  0  0  0  0  0  0  0
   13.0632   44.9649  132.0623 N   0  0  0  0  0  0  0  0  0  0  0  0
   12.6840   46.2322  132.5051 C   0  0  0  0  0  0  0  0  0  0  0  0
   13.4075   47.2104  132.0339 O   0  0  0  0  0  0  0  0  0  0  0  0
   11.6101   46.6515  133.4124 C   0  0  0  0  0  0  0  0  0  0  0  0
   10.3080   46.8040  132.7492 N   0  0  0  0  0  0  0  0  0  0  0  0
    9.5457   48.0067  132.8004 C   0  0  0  0  0  0  0  0  0  0  0  0
    8.2951   47.8479  132.8647 O   0  0  0  0  0  0  0  0  0  0  0  0
   10.0849   49.3320  132.7852 C   0  0  0  0  0  0  0  0  0  0  0  0
    9.1177   50.2934  133.4779 C   0  0  0  0  0  0  0  0  0  0  0  0
    9.7833   51.6104  133.1915 C   0  0  0  0  0  0  0  0  0  0  0  0
   10.8218   51.2952  132.1073 C   0  0  0  0  0  0  0  0  0  0  0  0
   10.3403   50.0168  131.5484 N   0  0  0  0  0  0  0  0  0  0  0  0
   10.2326   49.6358  130.2125 C   0  0  0  0  0  0  0  0  0  0  0  0
   11.3529   49.5501  129.5274 O   0  0  0  0  0  0  0  0  0  0  0  0
    9.0780   49.2907  129.3482 C   0  0  0  0  0  0  0  0  0  0  0  0
    8.8758   47.8877  129.1122 N   0  0  0  0  0  0  0  0  0  0  0  0
    8.8387   47.2397  127.8432 C   0  0  0  0  0  0  0  0  0  0  0  0
    7.8619   46.4510  127.5523 O   0  0  0  0  0  0  0  0  0  0  0  0
   11.9453   47.6890  126.6810 H   0  0  0  0  0  0  0  0  0  0  0  0
   12.7780   42.7736  128.2114 H   0  0  0  0  0  0  0  0  0  0  0  0
   14.0316   44.6021  132.3469 H   0  0  0  0  0  0  0  0  0  0  0  0
    9.9739   45.9692  132.2388 H   0  0  0  0  0  0  0  0  0  0  0  0
    8.7295   47.2624  129.9294 H   0  0  0  0  0  0  0  0  0  0  0  0
   10.2909   45.7437  125.0984 C   0  0  0  0  0  0  0  0  0  0  0  0
    9.4015   46.9455  125.4488 C   0  0  0  0  0  0  0  0  0  0  0  0
    9.6979   48.0010  124.4293 C   0  0  0  0  0  0  0  0  0  0  0  0
   10.2794   43.8657  127.7766 C   0  0  0  0  0  0  0  0  0  0  0  0
    9.5585   44.3934  128.9609 C   0  0  0  0  0  0  0  0  0  0  0  0
   10.1217   45.0787  129.9757 C   0  0  0  0  0  0  0  0  0  0  0  0
    9.3758   45.5143  131.0383 C   0  0  0  0  0  0  0  0  0  0  0  0
    8.0182   45.2739  131.1203 C   0  0  0  0  0  0  0  0  0  0  0  0
    7.4571   44.5697  130.0700 C   0  0  0  0  0  0  0  0  0  0  0  0
    8.1893   44.1239  128.9949 C   0  0  0  0  0  0  0  0  0  0  0  0
   12.3205   42.7236  131.9893 C   0  0  0  0  0  0  0  0  0  0  0  0
   11.1494   42.4479  132.8189 C   0  0  0  0  0  0  0  0  0  0  0  0
   11.1335   42.4306  134.2233 C   0  0  0  0  0  0  0  0  0  0  0  0
    9.9066   42.1154  134.6229 N   0  0  0  0  0  0  0  0  0  0  0  0
    9.1171   41.9259  133.5695 C   0  0  0  0  0  0  0  0  0  0  0  0
    7.7957   41.6091  133.4789 C   0  0  0  0  0  0  0  0  0  0  0  0
    7.1950   41.4888  132.2423 C   0  0  0  0  0  0  0  0  0  0  0  0
    7.9257   41.6882  131.0981 C   0  0  0  0  0  0  0  0  0  0  0  0
    9.2428   42.0035  131.1893 C   0  0  0  0  0  0  0  0  0  0  0  0
    9.8758   42.1299  132.4329 C   0  0  0  0  0  0  0  0  0  0  0  0
    9.6362   42.0368  135.6299 H   0  0  0  0  0  0  0  0  0  0  0  0
   11.4137   45.7653  134.6241 C   0  0  0  0  0  0  0  0  0  0  0  0
   10.1989   46.0702  135.3983 C   0  0  0  0  0  0  0  0  0  0  0  0
    9.9627   46.7073  136.5704 C   0  0  0  0  0  0  0  0  0  0  0  0
    8.6536   46.7278  136.8522 N   0  0  0  0  0  0  0  0  0  0  0  0
    8.0215   46.1044  135.8676 C   0  0  0  0  0  0  0  0  0  0  0  0
    6.6587   45.8788  135.7230 C   0  0  0  0  0  0  0  0  0  0  0  0
    6.2026   45.2129  134.6285 C   0  0  0  0  0  0  0  0  0  0  0  0
    7.1010   44.7800  133.6928 C   0  0  0  0  0  0  0  0  0  0  0  0
    8.4609   45.0080  133.8423 C   0  0  0  0  0  0  0  0  0  0  0  0
    8.9436   45.6767  134.9367 C   0  0  0  0  0  0  0  0  0  0  0  0
    8.2196   47.1694  137.7168 H   0  0  0  0  0  0  0  0  0  0  0  0
    7.8031   50.0111  129.7865 C   0  0  0  0  0  0  0  0  0  0  0  0
    6.5808   49.2360  129.6626 C   0  0  0  0  0  0  0  0  0  0  0  0
    5.3720   49.8655  129.4172 C   0  0  0  0  0  0  0  0  0  0  0  0
    4.2144   49.1478  129.3178 C   0  0  0  0  0  0  0  0  0  0  0  0
    4.2232   47.7957  129.4572 C   0  0  0  0  0  0  0  0  0  0  0  0
    5.4046   47.1273  129.7022 C   0  0  0  0  0  0  0  0  0  0  0  0
    6.5649   47.8490  129.8020 C   0  0  0  0  0  0  0  0  0  0  0  0
 33 34  1  0  0  0
 34 35  1  0  0  0
 34  1  1  0  0  0
  1  2  1  0  0  0
  2  3  1  0  0  0
  3  4  2  0  0  0
  3  5  1  0  0  0
  5 36  1  0  0  0
 36 37  1  0  0  0
 37 38  2  0  0  0
 38 39  1  0  0  0
 39 40  2  0  0  0
 40 41  1  0  0  0
 41 42  2  0  0  0
  5  6  1  0  0  0
  6  7  1  0  0  0
  7  8  2  0  0  0
  7  9  1  0  0  0
  9 43  1  0  0  0
 43 44  1  0  0  0
 44 45  2  0  0  0
 45 46  1  0  0  0
 46 47  1  0  0  0
 47 48  2  0  0  0
 48 49  1  0  0  0
 49 50  2  0  0  0
 50 51  1  0  0  0
 51 52  2  0  0  0
  9 10  1  0  0  0
 10 11  1  0  0  0
 11 12  2  0  0  0
 11 13  1  0  0  0
 13 54  1  0  0  0
 54 55  1  0  0  0
 55 56  2  0  0  0
 56 57  1  0  0  0
 57 58  1  0  0  0
 58 59  2  0  0  0
 59 60  1  0  0  0
 60 61  2  0  0  0
 61 62  1  0  0  0
 62 63  2  0  0  0
 13 14  1  0  0  0
 14 15  1  0  0  0
 15 16  2  0  0  0
 15 17  1  0  0  0
 17 18  1  0  0  0
 18 19  1  0  0  0
 19 20  1  0  0  0
 20 21  1  0  0  0
 21 22  1  0  0  0
 22 23  2  0  0  0
 22 24  1  0  0  0
 24 65  1  0  0  0
 65 66  1  0  0  0
 66 67  2  0  0  0
 67 68  1  0  0  0
 68 69  2  0  0  0
 69 70  1  0  0  0
 70 71  2  0  0  0
 24 25  1  0  0  0
 25 26  1  0  0  0
 26 27  2  0  0  0
 26  1  1  0  0  0
 42 37  1  0  0  0
 52 44  1  0  0  0
 63 55  1  0  0  0
 21 17  1  0  0  0
 71 66  1  0  0  0
 52 47  1  0  0  0
 63 58  1  0  0  0
  2 28  1  0  0  0
  6 29  1  0  0  0
 46 53  1  0  0  0
 10 30  1  0  0  0
 57 64  1  0  0  0
 14 31  1  0  0  0
 25 32  1  0  0  0
M  END
> <minimizedAffinity>
58.29689

> <CNNscore>
0.3296908736

> <CNNaffinity>
8.2432680130

> <CNN_VS>
2.7177302837

> <CNNaffinity_variance>
2.4143900871

$$$$
[H]c1c([H])c([H])c(C([H])([H])[C@@]2([H])C(=O)N3C([H])([H])C([H])([H])C([H])([H])[C@@]3([H])C(=O)N([H])[C@@]([H])(C([H])([H])c3c([H])n([H])c4c([H])c([H])c([H])c([H])c34)C(=O)N([H])[C@]([H])(C([H])([H])c3c([H])n([H])c4c([H])c([H])c([H])c([H])c34)C(=O)N([H])[C@@]([H])(C([H])([H])c3c([H])c([H])c([H])c([H])c3[H])C(=O)N([H])[C@@]([H])(C([H])(C([H])([H])[H])C([H])([H])[H])C(=O)N2[H])c([H])c1[H]


 71 78  0  0  0  0  0  0  0  0999 V2000
    9.5487   42.1287  134.1513 C   0  0  0  0  0  0  0  0  0  0  0  0
   10.0621   43.2260  134.9173 N   0  0  0  0  0  0  0  0  0  0  0  0
    9.6717   44.5609  135.0302 C   0  0  0  0  0  0  0  0  0  0  0  0
   10.5634   45.3951  134.6127 O   0  0  0  0  0  0  0  0  0  0  0  0
    8.4597   45.2021  135.5300 C   0  0  0  0  0  0  0  0  0  0  0  0
    8.5259   46.6366  135.6718 N   0  0  0  0  0  0  0  0  0  0  0  0
    9.2636   47.6241  135.0461 C   0  0  0  0  0  0  0  0  0  0  0  0
   10.1960   48.1660  135.7802 O   0  0  0  0  0  0  0  0  0  0  0  0
    9.2059   48.1983  133.6931 C   0  0  0  0  0  0  0  0  0  0  0  0
   10.5410   48.6142  133.2892 N   0  0  0  0  0  0  0  0  0  0  0  0
   11.4116   48.0501  132.3568 C   0  0  0  0  0  0  0  0  0  0  0  0
   12.5060   47.5554  132.8666 O   0  0  0  0  0  0  0  0  0  0  0  0
   11.3060   47.9199  130.8994 C   0  0  0  0  0  0  0  0  0  0  0  0
   10.5360   46.7449  130.4696 N   0  0  0  0  0  0  0  0  0  0  0  0
   11.0536   45.7590  129.5805 C   0  0  0  0  0  0  0  0  0  0  0  0
   10.2168   45.2754  128.7685 O   0  0  0  0  0  0  0  0  0  0  0  0
   12.4084   45.2998  129.5487 C   0  0  0  0  0  0  0  0  0  0  0  0
   12.7482   44.7832  128.1497 C   0  0  0  0  0  0  0  0  0  0  0  0
   14.1142   44.2045  128.3922 C   0  0  0  0  0  0  0  0  0  0  0  0
   14.2453   44.1399  129.9193 C   0  0  0  0  0  0  0  0  0  0  0  0
   12.8433   44.2085  130.3757 N   0  0  0  0  0  0  0  0  0  0  0  0
   12.2067   43.4449  131.3519 C   0  0  0  0  0  0  0  0  0  0  0  0
   12.6480   43.5704  132.5853 O   0  0  0  0  0  0  0  0  0  0  0  0
   11.0885   42.4719  131.3064 C   0  0  0  0  0  0  0  0  0  0  0  0
    9.8162   42.9659  131.7560 N   0  0  0  0  0  0  0  0  0  0  0  0
    9.0235   42.4263  132.8107 C   0  0  0  0  0  0  0  0  0  0  0  0
    7.7758   42.1724  132.6120 O   0  0  0  0  0  0  0  0  0  0  0  0
   10.9400   42.9109  135.5118 H   0  0  0  0  0  0  0  0  0  0  0  0
    7.8583   47.0133  136.4441 H   0  0  0  0  0  0  0  0  0  0  0  0
   10.8741   49.4794  133.8286 H   0  0  0  0  0  0  0  0  0  0  0  0
    9.5794   46.6802  130.8564 H   0  0  0  0  0  0  0  0  0  0  0  0
    9.4055   43.7910  131.2755 H   0  0  0  0  0  0  0  0  0  0  0  0
    9.2197   39.8092  134.7965 C   0  0  0  0  0  0  0  0  0  0  0  0
    8.6272   41.2189  134.9371 C   0  0  0  0  0  0  0  0  0  0  0  0
    7.2849   41.1801  134.2755 C   0  0  0  0  0  0  0  0  0  0  0  0
    7.1830   44.9026  134.7968 C   0  0  0  0  0  0  0  0  0  0  0  0
    7.3454   45.3185  133.3821 C   0  0  0  0  0  0  0  0  0  0  0  0
    8.4583   45.1472  132.6413 C   0  0  0  0  0  0  0  0  0  0  0  0
    8.5205   45.5793  131.3433 C   0  0  0  0  0  0  0  0  0  0  0  0
    7.4517   46.2073  130.7346 C   0  0  0  0  0  0  0  0  0  0  0  0
    6.3179   46.3743  131.5095 C   0  0  0  0  0  0  0  0  0  0  0  0
    6.2363   45.9477  132.8142 C   0  0  0  0  0  0  0  0  0  0  0  0
    8.3276   49.4061  133.5220 C   0  0  0  0  0  0  0  0  0  0  0  0
    8.9016   50.7158  133.8235 C   0  0  0  0  0  0  0  0  0  0  0  0
    9.9880   51.3015  133.1529 C   0  0  0  0  0  0  0  0  0  0  0  0
   10.2447   52.4751  133.7196 N   0  0  0  0  0  0  0  0  0  0  0  0
    9.3948   52.6963  134.7184 C   0  0  0  0  0  0  0  0  0  0  0  0
    9.2572   53.7519  135.5676 C   0  0  0  0  0  0  0  0  0  0  0  0
    8.2616   53.7474  136.5234 C   0  0  0  0  0  0  0  0  0  0  0  0
    7.4054   52.6798  136.6225 C   0  0  0  0  0  0  0  0  0  0  0  0
    7.5436   51.6277  135.7760 C   0  0  0  0  0  0  0  0  0  0  0  0
    8.5471   51.6081  134.7984 C   0  0  0  0  0  0  0  0  0  0  0  0
   11.0128   53.1082  133.3996 H   0  0  0  0  0  0  0  0  0  0  0  0
   10.7413   49.1313  130.1882 C   0  0  0  0  0  0  0  0  0  0  0  0
    9.4981   48.8642  129.4457 C   0  0  0  0  0  0  0  0  0  0  0  0
    9.1763   48.0614  128.4029 C   0  0  0  0  0  0  0  0  0  0  0  0
    7.8792   48.1753  128.0896 N   0  0  0  0  0  0  0  0  0  0  0  0
    7.3406   49.0535  128.9241 C   0  0  0  0  0  0  0  0  0  0  0  0
    6.0246   49.4933  128.9832 C   0  0  0  0  0  0  0  0  0  0  0  0
    5.6658   50.4082  129.9233 C   0  0  0  0  0  0  0  0  0  0  0  0
    6.6140   50.8747  130.7913 C   0  0  0  0  0  0  0  0  0  0  0  0
    7.9269   50.4320  130.7277 C   0  0  0  0  0  0  0  0  0  0  0  0
    8.3115   49.5106  129.7890 C   0  0  0  0  0  0  0  0  0  0  0  0
    7.3890   47.6476  127.3073 H   0  0  0  0  0  0  0  0  0  0  0  0
   11.0078   41.7597  129.9563 C   0  0  0  0  0  0  0  0  0  0  0  0
   10.1526   42.3976  128.9704 C   0  0  0  0  0  0  0  0  0  0  0  0
   10.5205   42.4270  127.6357 C   0  0  0  0  0  0  0  0  0  0  0  0
    9.7328   43.0405  126.7040 C   0  0  0  0  0  0  0  0  0  0  0  0
    8.5666   43.6371  127.0670 C   0  0  0  0  0  0  0  0  0  0  0  0
    8.1611   43.6318  128.3854 C   0  0  0  0  0  0  0  0  0  0  0  0
    8.9528   43.0161  129.3188 C   0  0  0  0  0  0  0  0  0  0  0  0
 33 34  1  0  0  0
 34 35  1  0  0  0
 34  1  1  0  0  0
  1  2  1  0  0  0
  2  3  1  0  0  0
  3  4  2  0  0  0
  3  5  1  0  0  0
  5 36  1  0  0  0
 36 37  1  0  0  0
 37 38  2  0  0  0
 38 39  1  0  0  0
 39 40  2  0  0  0
 40 41  1  0  0  0
 41 42  2  0  0  0
  5  6  1  0  0  0
  6  7  1  0  0  0
  7  8  2  0  0  0
  7  9  1  0  0  0
  9 43  1  0  0  0
 43 44  1  0  0  0
 44 45  2  0  0  0
 45 46  1  0  0  0
 46 47  1  0  0  0
 47 48  2  0  0  0
 48 49  1  0  0  0
 49 50  2  0  0  0
 50 51  1  0  0  0
 51 52  2  0  0  0
  9 10  1  0  0  0
 10 11  1  0  0  0
 11 12  2  0  0  0
 11 13  1  0  0  0
 13 54  1  0  0  0
 54 55  1  0  0  0
 55 56  2  0  0  0
 56 57  1  0  0  0
 57 58  1  0  0  0
 58 59  2  0  0  0
 59 60  1  0  0  0
 60 61  2  0  0  0
 61 62  1  0  0  0
 62 63  2  0  0  0
 13 14  1  0  0  0
 14 15  1  0  0  0
 15 16  2  0  0  0
 15 17  1  0  0  0
 17 18  1  0  0  0
 18 19  1  0  0  0
 19 20  1  0  0  0
 20 21  1  0  0  0
 21 22  1  0  0  0
 22 23  2  0  0  0
 22 24  1  0  0  0
 24 65  1  0  0  0
 65 66  1  0  0  0
 66 67  2  0  0  0
 67 68  1  0  0  0
 68 69  2  0  0  0
 69 70  1  0  0  0
 70 71  2  0  0  0
 24 25  1  0  0  0
 25 26  1  0  0  0
 26 27  2  0  0  0
 26  1  1  0  0  0
 42 37  1  0  0  0
 52 44  1  0  0  0
 63 55  1  0  0  0
 21 17  1  0  0  0
 71 66  1  0  0  0
 52 47  1  0  0  0
 63 58  1  0  0  0
  2 28  1  0  0  0
  6 29  1  0  0  0
 46 53  1  0  0  0
 10 30  1  0  0  0
 57 64  1  0  0  0
 14 31  1  0  0  0
 25 32  1  0  0  0
M  END
> <minimizedAffinity>
60.17773

> <CNNscore>
0.3232910931

> <CNNaffinity>
8.3217334747

> <CNN_VS>
2.6903424263

> <CNNaffinity_variance>
2.6737678051

$$$$
[H]c1c([H])c([H])c(C([H])([H])[C@@]2([H])C(=O)N3C([H])([H])C([H])([H])C([H])([H])[C@@]3([H])C(=O)N([H])[C@@]([H])(C([H])([H])c3c([H])n([H])c4c([H])c([H])c([H])c([H])c34)C(=O)N([H])[C@]([H])(C([H])([H])c3c([H])n([H])c4c([H])c([H])c([H])c([H])c34)C(=O)N([H])[C@@]([H])(C([H])([H])c3c([H])c([H])c([H])c([H])c3[H])C(=O)N([H])[C@@]([H])(C([H])(C([H])([H])[H])C([H])([H])[H])C(=O)N2[H])c([H])c1[H]


 71 78  0  0  0  0  0  0  0  0999 V2000
   12.0132   43.8781  135.5556 C   0  0  0  0  0  0  0  0  0  0  0  0
   10.7249   43.2839  135.3513 N   0  0  0  0  0  0  0  0  0  0  0  0
   10.0785   42.8036  134.2117 C   0  0  0  0  0  0  0  0  0  0  0  0
    9.0065   43.4573  133.9140 O   0  0  0  0  0  0  0  0  0  0  0  0
   10.3694   41.7078  133.2927 C   0  0  0  0  0  0  0  0  0  0  0  0
    9.3300   41.3997  132.3405 N   0  0  0  0  0  0  0  0  0  0  0  0
    8.3170   42.1405  131.7608 C   0  0  0  0  0  0  0  0  0  0  0  0
    7.1145   41.8522  132.1763 O   0  0  0  0  0  0  0  0  0  0  0  0
    8.3235   43.2081  130.7489 C   0  0  0  0  0  0  0  0  0  0  0  0
    7.2168   44.1188  131.0029 N   0  0  0  0  0  0  0  0  0  0  0  0
    7.2247   45.4218  131.5007 C   0  0  0  0  0  0  0  0  0  0  0  0
    6.6580   45.5600  132.6678 O   0  0  0  0  0  0  0  0  0  0  0  0
    7.7612   46.6639  130.9337 C   0  0  0  0  0  0  0  0  0  0  0  0
    9.1940   46.8572  131.1948 N   0  0  0  0  0  0  0  0  0  0  0  0
    9.7189   48.0215  131.8266 C   0  0  0  0  0  0  0  0  0  0  0  0
   10.8358   48.4135  131.3882 O   0  0  0  0  0  0  0  0  0  0  0  0
    9.0861   48.7480  132.8846 C   0  0  0  0  0  0  0  0  0  0  0  0
    9.5538   50.2042  132.8657 C   0  0  0  0  0  0  0  0  0  0  0  0
    8.9222   50.7145  134.1307 C   0  0  0  0  0  0  0  0  0  0  0  0
    8.4799   49.4527  134.8827 C   0  0  0  0  0  0  0  0  0  0  0  0
    9.2965   48.3923  134.2604 N   0  0  0  0  0  0  0  0  0  0  0  0
    9.9991   47.3591  134.8772 C   0  0  0  0  0  0  0  0  0  0  0  0
    9.2888   46.4692  135.5369 O   0  0  0  0  0  0  0  0  0  0  0  0
   11.4415   47.0249  134.9610 C   0  0  0  0  0  0  0  0  0  0  0  0
   11.8856   45.9669  134.0959 N   0  0  0  0  0  0  0  0  0  0  0  0
   12.5276   44.7591  134.4968 C   0  0  0  0  0  0  0  0  0  0  0  0
   13.6205   44.3904  133.9220 O   0  0  0  0  0  0  0  0  0  0  0  0
   10.1680   43.2206  136.3049 H   0  0  0  0  0  0  0  0  0  0  0  0
    9.3464   40.3590  132.0233 H   0  0  0  0  0  0  0  0  0  0  0  0
    6.2678   43.6733  130.7762 H   0  0  0  0  0  0  0  0  0  0  0  0
    9.8062   46.0846  130.8828 H   0  0  0  0  0  0  0  0  0  0  0  0
   11.7464   46.0715  133.0712 H   0  0  0  0  0  0  0  0  0  0  0  0
   12.7361   42.6524  137.5252 C   0  0  0  0  0  0  0  0  0  0  0  0
   13.0615   42.9005  136.0452 C   0  0  0  0  0  0  0  0  0  0  0  0
   14.4064   43.5572  136.0133 C   0  0  0  0  0  0  0  0  0  0  0  0
   11.6508   41.7989  132.5137 C   0  0  0  0  0  0  0  0  0  0  0  0
   11.7025   43.1237  131.8481 C   0  0  0  0  0  0  0  0  0  0  0  0
   10.8089   44.1182  132.0192 C   0  0  0  0  0  0  0  0  0  0  0  0
   10.9308   45.3053  131.3475 C   0  0  0  0  0  0  0  0  0  0  0  0
   11.9696   45.5391  130.4679 C   0  0  0  0  0  0  0  0  0  0  0  0
   12.8772   44.5079  130.3049 C   0  0  0  0  0  0  0  0  0  0  0  0
   12.7716   43.3089  130.9700 C   0  0  0  0  0  0  0  0  0  0  0  0
    8.1761   42.7678  129.3192 C   0  0  0  0  0  0  0  0  0  0  0  0
    9.2428   43.1182  128.3836 C   0  0  0  0  0  0  0  0  0  0  0  0
    9.9735   42.2060  127.6046 C   0  0  0  0  0  0  0  0  0  0  0  0
   10.8736   42.8846  126.9020 N   0  0  0  0  0  0  0  0  0  0  0  0
   10.7786   44.1837  127.1702 C   0  0  0  0  0  0  0  0  0  0  0  0
   11.4664   45.2560  126.6891 C   0  0  0  0  0  0  0  0  0  0  0  0
   11.1551   46.5295  127.1202 C   0  0  0  0  0  0  0  0  0  0  0  0
   10.1508   46.7216  128.0353 C   0  0  0  0  0  0  0  0  0  0  0  0
    9.4660   45.6523  128.5148 C   0  0  0  0  0  0  0  0  0  0  0  0
    9.7643   44.3496  128.0937 C   0  0  0  0  0  0  0  0  0  0  0  0
   11.5446   42.4292  126.2419 H   0  0  0  0  0  0  0  0  0  0  0  0
    7.5316   46.8402  129.4476 C   0  0  0  0  0  0  0  0  0  0  0  0
    6.5543   47.8895  129.1130 C   0  0  0  0  0  0  0  0  0  0  0  0
    5.2976   47.8810  128.6069 C   0  0  0  0  0  0  0  0  0  0  0  0
    4.8178   49.1257  128.4878 N   0  0  0  0  0  0  0  0  0  0  0  0
    5.7560   49.9597  128.9145 C   0  0  0  0  0  0  0  0  0  0  0  0
    5.7133   51.3464  128.9800 C   0  0  0  0  0  0  0  0  0  0  0  0
    6.7903   52.0278  129.4544 C   0  0  0  0  0  0  0  0  0  0  0  0
    7.8939   51.3278  129.8573 C   0  0  0  0  0  0  0  0  0  0  0  0
    7.9310   49.9430  129.7896 C   0  0  0  0  0  0  0  0  0  0  0  0
    6.8578   49.2351  129.3152 C   0  0  0  0  0  0  0  0  0  0  0  0
    3.8547   49.3782  128.1145 H   0  0  0  0  0  0  0  0  0  0  0  0
   12.3210   48.2723  134.8769 C   0  0  0  0  0  0  0  0  0  0  0  0
   13.3819   48.3491  135.8662 C   0  0  0  0  0  0  0  0  0  0  0  0
   14.4672   47.4915  135.7999 C   0  0  0  0  0  0  0  0  0  0  0  0
   15.4605   47.5430  136.7357 C   0  0  0  0  0  0  0  0  0  0  0  0
   15.4060   48.4400  137.7556 C   0  0  0  0  0  0  0  0  0  0  0  0
   14.3435   49.3133  137.8605 C   0  0  0  0  0  0  0  0  0  0  0  0
   13.3478   49.2600  136.9209 C   0  0  0  0  0  0  0  0  0  0  0  0
 33 34  1  0  0  0
 34 35  1  0  0  0
 34  1  1  0  0  0
  1  2  1  0  0  0
  2  3  1  0  0  0
  3  4  2  0  0  0
  3  5  1  0  0  0
  5 36  1  0  0  0
 36 37  1  0  0  0
 37 38  2  0  0  0
 38 39  1  0  0  0
 39 40  2  0  0  0
 40 41  1  0  0  0
 41 42  2  0  0  0
  5  6  1  0  0  0
  6  7  1  0  0  0
  7  8  2  0  0  0
  7  9  1  0  0  0
  9 43  1  0  0  0
 43 44  1  0  0  0
 44 45  2  0  0  0
 45 46  1  0  0  0
 46 47  1  0  0  0
 47 48  2  0  0  0
 48 49  1  0  0  0
 49 50  2  0  0  0
 50 51  1  0  0  0
 51 52  2  0  0  0
  9 10  1  0  0  0
 10 11  1  0  0  0
 11 12  2  0  0  0
 11 13  1  0  0  0
 13 54  1  0  0  0
 54 55  1  0  0  0
 55 56  2  0  0  0
 56 57  1  0  0  0
 57 58  1  0  0  0
 58 59  2  0  0  0
 59 60  1  0  0  0
 60 61  2  0  0  0
 61 62  1  0  0  0
 62 63  2  0  0  0
 13 14  1  0  0  0
 14 15  1  0  0  0
 15 16  2  0  0  0
 15 17  1  0  0  0
 17 18  1  0  0  0
 18 19  1  0  0  0
 19 20  1  0  0  0
 20 21  1  0  0  0
 21 22  1  0  0  0
 22 23  2  0  0  0
 22 24  1  0  0  0
 24 65  1  0  0  0
 65 66  1  0  0  0
 66 67  2  0  0  0
 67 68  1  0  0  0
 68 69  2  0  0  0
 69 70  1  0  0  0
 70 71  2  0  0  0
 24 25  1  0  0  0
 25 26  1  0  0  0
 26 27  2  0  0  0
 26  1  1  0  0  0
 42 37  1  0  0  0
 52 44  1  0  0  0
 63 55  1  0  0  0
 21 17  1  0  0  0
 71 66  1  0  0  0
 52 47  1  0  0  0
 63 58  1  0  0  0
  2 28  1  0  0  0
  6 29  1  0  0  0
 46 53  1  0  0  0
 10 30  1  0  0  0
 57 64  1  0  0  0
 14 31  1  0  0  0
 25 32  1  0  0  0
M  END
> <minimizedAffinity>
50.82695

> <CNNscore>
0.2802236974

> <CNNaffinity>
8.3923225403

> <CNN_VS>
2.3517277241

> <CNNaffinity_variance>
1.5000252724

$$$$
[H]c1c([H])c([H])c(C([H])([H])[C@@]2([H])C(=O)N3C([H])([H])C([H])([H])C([H])([H])[C@@]3([H])C(=O)N([H])[C@@]([H])(C([H])([H])c3c([H])n([H])c4c([H])c([H])c([H])c([H])c34)C(=O)N([H])[C@]([H])(C([H])([H])c3c([H])n([H])c4c([H])c([H])c([H])c([H])c34)C(=O)N([H])[C@@]([H])(C([H])([H])c3c([H])c([H])c([H])c([H])c3[H])C(=O)N([H])[C@@]([H])(C([H])(C([H])([H])[H])C([H])([H])[H])C(=O)N2[H])c([H])c1[H]


 71 78  0  0  0  0  0  0  0  0999 V2000
   11.6169   43.9850  135.1310 C   0  0  0  0  0  0  0  0  0  0  0  0
   10.3492   43.4333  134.7529 N   0  0  0  0  0  0  0  0  0  0  0  0
    9.8452   42.9782  133.5338 C   0  0  0  0  0  0  0  0  0  0  0  0
    8.8434   43.6672  133.1016 O   0  0  0  0  0  0  0  0  0  0  0  0
   10.2211   41.8769  132.6530 C   0  0  0  0  0  0  0  0  0  0  0  0
    9.3083   41.6059  131.5687 N   0  0  0  0  0  0  0  0  0  0  0  0
    8.4052   42.3810  130.8656 C   0  0  0  0  0  0  0  0  0  0  0  0
    7.1496   42.1301  131.1155 O   0  0  0  0  0  0  0  0  0  0  0  0
    8.5796   43.4516  129.8720 C   0  0  0  0  0  0  0  0  0  0  0  0
    7.4782   44.3965  129.9840 N   0  0  0  0  0  0  0  0  0  0  0  0
    7.4608   45.6968  130.4888 C   0  0  0  0  0  0  0  0  0  0  0  0
    6.7486   45.8489  131.5714 O   0  0  0  0  0  0  0  0  0  0  0  0
    8.1067   46.9230  130.0077 C   0  0  0  0  0  0  0  0  0  0  0  0
    9.4974   47.0691  130.4583 N   0  0  0  0  0  0  0  0  0  0  0  0
    9.9700   48.2136  131.1633 C   0  0  0  0  0  0  0  0  0  0  0  0
   11.1470   48.5710  130.8801 O   0  0  0  0  0  0  0  0  0  0  0  0
    9.2253   48.9562  132.1336 C   0  0  0  0  0  0  0  0  0  0  0  0
    9.7369   50.3966  132.1885 C   0  0  0  0  0  0  0  0  0  0  0  0
    8.9591   50.9225  133.3625 C   0  0  0  0  0  0  0  0  0  0  0  0
    8.3813   49.6728  134.0391 C   0  0  0  0  0  0  0  0  0  0  0  0
    9.2397   48.5890  133.5224 N   0  0  0  0  0  0  0  0  0  0  0  0
    9.8212   47.5314  134.2188 C   0  0  0  0  0  0  0  0  0  0  0  0
    9.0019   46.6624  134.7713 O   0  0  0  0  0  0  0  0  0  0  0  0
   11.2285   47.1506  134.4907 C   0  0  0  0  0  0  0  0  0  0  0  0
   11.7502   46.0821  133.6839 N   0  0  0  0  0  0  0  0  0  0  0  0
   12.2949   44.8527  134.1569 C   0  0  0  0  0  0  0  0  0  0  0  0
   13.4423   44.4511  133.7293 O   0  0  0  0  0  0  0  0  0  0  0  0
    9.6688   43.3844  135.6236 H   0  0  0  0  0  0  0  0  0  0  0  0
    9.3340   40.5664  131.2484 H   0  0  0  0  0  0  0  0  0  0  0  0
    6.5542   43.9826  129.6299 H   0  0  0  0  0  0  0  0  0  0  0  0
   10.1210   46.2783  130.2242 H   0  0  0  0  0  0  0  0  0  0  0  0
   11.7518   46.1948  132.6506 H   0  0  0  0  0  0  0  0  0  0  0  0
   12.1752   42.9005  137.2327 C   0  0  0  0  0  0  0  0  0  0  0  0
   12.5596   42.9723  135.7477 C   0  0  0  0  0  0  0  0  0  0  0  0
   13.9588   43.5025  135.6993 C   0  0  0  0  0  0  0  0  0  0  0  0
   11.5969   41.9295  132.0516 C   0  0  0  0  0  0  0  0  0  0  0  0
   11.7509   43.2244  131.3443 C   0  0  0  0  0  0  0  0  0  0  0  0
   10.8051   44.1802  131.2518 C   0  0  0  0  0  0  0  0  0  0  0  0
   11.0341   45.3410  130.5622 C   0  0  0  0  0  0  0  0  0  0  0  0
   12.2384   45.5865  129.9324 C   0  0  0  0  0  0  0  0  0  0  0  0
   13.1975   44.5951  130.0381 C   0  0  0  0  0  0  0  0  0  0  0  0
   12.9863   43.4231  130.7256 C   0  0  0  0  0  0  0  0  0  0  0  0
    8.6098   43.0215  128.4319 C   0  0  0  0  0  0  0  0  0  0  0  0
    9.9101   42.9468  127.7690 C   0  0  0  0  0  0  0  0  0  0  0  0
   10.8137   44.0129  127.6283 C   0  0  0  0  0  0  0  0  0  0  0  0
   11.8690   43.5786  126.9486 N   0  0  0  0  0  0  0  0  0  0  0  0
   11.7149   42.2952  126.6356 C   0  0  0  0  0  0  0  0  0  0  0  0
   12.5249   41.4263  125.9696 C   0  0  0  0  0  0  0  0  0  0  0  0
   12.1362   40.1142  125.7915 C   0  0  0  0  0  0  0  0  0  0  0  0
   10.9322   39.6784  126.2847 C   0  0  0  0  0  0  0  0  0  0  0  0
   10.1252   40.5451  126.9479 C   0  0  0  0  0  0  0  0  0  0  0  0
   10.4968   41.8824  127.1405 C   0  0  0  0  0  0  0  0  0  0  0  0
   12.6859   44.1868  126.7118 H   0  0  0  0  0  0  0  0  0  0  0  0
    8.0823   47.1120  128.5058 C   0  0  0  0  0  0  0  0  0  0  0  0
    7.7182   48.4736  128.0795 C   0  0  0  0  0  0  0  0  0  0  0  0
    7.7559   49.1332  126.8967 C   0  0  0  0  0  0  0  0  0  0  0  0
    7.3016   50.3861  127.0292 N   0  0  0  0  0  0  0  0  0  0  0  0
    6.9627   50.5577  128.2994 C   0  0  0  0  0  0  0  0  0  0  0  0
    6.4428   51.6925  128.9083 C   0  0  0  0  0  0  0  0  0  0  0  0
    6.1566   51.6677  130.2376 C   0  0  0  0  0  0  0  0  0  0  0  0
    6.3889   50.5207  130.9453 C   0  0  0  0  0  0  0  0  0  0  0  0
    6.9084   49.3904  130.3320 C   0  0  0  0  0  0  0  0  0  0  0  0
    7.2043   49.3919  128.9939 C   0  0  0  0  0  0  0  0  0  0  0  0
    7.2338   51.0998  126.2438 H   0  0  0  0  0  0  0  0  0  0  0  0
   12.1501   48.3693  134.5339 C   0  0  0  0  0  0  0  0  0  0  0  0
   13.1795   48.3305  135.5581 C   0  0  0  0  0  0  0  0  0  0  0  0
   13.1492   49.2211  136.6182 C   0  0  0  0  0  0  0  0  0  0  0  0
   14.1224   49.2053  137.5761 C   0  0  0  0  0  0  0  0  0  0  0  0
   15.1449   48.3121  137.5104 C   0  0  0  0  0  0  0  0  0  0  0  0
   15.2148   47.4067  136.4723 C   0  0  0  0  0  0  0  0  0  0  0  0
   14.2377   47.4242  135.5120 C   0  0  0  0  0  0  0  0  0  0  0  0
 33 34  1  0  0  0
 34 35  1  0  0  0
 34  1  1  0  0  0
  1  2  1  0  0  0
  2  3  1  0  0  0
  3  4  2  0  0  0
  3  5  1  0  0  0
  5 36  1  0  0  0
 36 37  1  0  0  0
 37 38  2  0  0  0
 38 39  1  0  0  0
 39 40  2  0  0  0
 40 41  1  0  0  0
 41 42  2  0  0  0
  5  6  1  0  0  0
  6  7  1  0  0  0
  7  8  2  0  0  0
  7  9  1  0  0  0
  9 43  1  0  0  0
 43 44  1  0  0  0
 44 45  2  0  0  0
 45 46  1  0  0  0
 46 47  1  0  0  0
 47 48  2  0  0  0
 48 49  1  0  0  0
 49 50  2  0  0  0
 50 51  1  0  0  0
 51 52  2  0  0  0
  9 10  1  0  0  0
 10 11  1  0  0  0
 11 12  2  0  0  0
 11 13  1  0  0  0
 13 54  1  0  0  0
 54 55  1  0  0  0
 55 56  2  0  0  0
 56 57  1  0  0  0
 57 58  1  0  0  0
 58 59  2  0  0  0
 59 60  1  0  0  0
 60 61  2  0  0  0
 61 62  1  0  0  0
 62 63  2  0  0  0
 13 14  1  0  0  0
 14 15  1  0  0  0
 15 16  2  0  0  0
 15 17  1  0  0  0
 17 18  1  0  0  0
 18 19  1  0  0  0
 19 20  1  0  0  0
 20 21  1  0  0  0
 21 22  1  0  0  0
 22 23  2  0  0  0
 22 24  1  0  0  0
 24 65  1  0  0  0
 65 66  1  0  0  0
 66 67  2  0  0  0
 67 68  1  0  0  0
 68 69  2  0  0  0
 69 70  1  0  0  0
 70 71  2  0  0  0
 24 25  1  0  0  0
 25 26  1  0  0  0
 26 27  2  0  0  0
 26  1  1  0  0  0
 42 37  1  0  0  0
 52 44  1  0  0  0
 63 55  1  0  0  0
 21 17  1  0  0  0
 71 66  1  0  0  0
 52 47  1  0  0  0
 63 58  1  0  0  0
  2 28  1  0  0  0
  6 29  1  0  0  0
 46 53  1  0  0  0
 10 30  1  0  0  0
 57 64  1  0  0  0
 14 31  1  0  0  0
 25 32  1  0  0  0
M  END
> <minimizedAffinity>
53.35126

> <CNNscore>
0.2611639798

> <CNNaffinity>
8.2040805817

> <CNN_VS>
2.1426103115

> <CNNaffinity_variance>
1.8016942739

$$$$
[H]c1c([H])c([H])c(C([H])([H])[C@@]2([H])C(=O)N3C([H])([H])C([H])([H])C([H])([H])[C@@]3([H])C(=O)N([H])[C@@]([H])(C([H])([H])c3c([H])n([H])c4c([H])c([H])c([H])c([H])c34)C(=O)N([H])[C@]([H])(C([H])([H])c3c([H])n([H])c4c([H])c([H])c([H])c([H])c34)C(=O)N([H])[C@@]([H])(C([H])([H])c3c([H])c([H])c([H])c([H])c3[H])C(=O)N([H])[C@@]([H])(C([H])(C([H])([H])[H])C([H])([H])[H])C(=O)N2[H])c([H])c1[H]


 71 78  0  0  0  0  0  0  0  0999 V2000
   11.8087   45.2092  134.3241 C   0  0  0  0  0  0  0  0  0  0  0  0
   12.0712   46.5728  133.9689 N   0  0  0  0  0  0  0  0  0  0  0  0
   11.2345   47.6686  133.7539 C   0  0  0  0  0  0  0  0  0  0  0  0
   11.2757   48.1183  132.5451 O   0  0  0  0  0  0  0  0  0  0  0  0
   10.3265   48.4102  134.6231 C   0  0  0  0  0  0  0  0  0  0  0  0
    9.7876   49.6284  134.0682 N   0  0  0  0  0  0  0  0  0  0  0  0
    9.5392   50.0615  132.7791 C   0  0  0  0  0  0  0  0  0  0  0  0
   10.3425   50.9932  132.3450 O   0  0  0  0  0  0  0  0  0  0  0  0
    8.5305   49.6758  131.7804 C   0  0  0  0  0  0  0  0  0  0  0  0
    9.0904   49.8310  130.4459 N   0  0  0  0  0  0  0  0  0  0  0  0
    9.4925   48.8637  129.5247 C   0  0  0  0  0  0  0  0  0  0  0  0
   10.7730   48.8523  129.2743 O   0  0  0  0  0  0  0  0  0  0  0  0
    8.7193   47.8577  128.7885 C   0  0  0  0  0  0  0  0  0  0  0  0
    8.4824   46.6252  129.5523 N   0  0  0  0  0  0  0  0  0  0  0  0
    8.8469   45.3329  129.0754 C   0  0  0  0  0  0  0  0  0  0  0  0
    8.0452   44.4045  129.3732 O   0  0  0  0  0  0  0  0  0  0  0  0
   10.0171   45.0309  128.3094 C   0  0  0  0  0  0  0  0  0  0  0  0
    9.7727   43.7830  127.4594 C   0  0  0  0  0  0  0  0  0  0  0  0
   11.1485   43.5566  126.8975 C   0  0  0  0  0  0  0  0  0  0  0  0
   12.0659   44.4540  127.7380 C   0  0  0  0  0  0  0  0  0  0  0  0
   11.2620   44.7080  128.9495 N   0  0  0  0  0  0  0  0  0  0  0  0
   11.6624   44.6726  130.2837 C   0  0  0  0  0  0  0  0  0  0  0  0
   12.5630   45.5565  130.6570 O   0  0  0  0  0  0  0  0  0  0  0  0
   11.2814   43.8155  131.4323 C   0  0  0  0  0  0  0  0  0  0  0  0
   10.3717   44.4070  132.3744 N   0  0  0  0  0  0  0  0  0  0  0  0
   10.5972   44.5870  133.7702 C   0  0  0  0  0  0  0  0  0  0  0  0
    9.7126   44.1930  134.6205 O   0  0  0  0  0  0  0  0  0  0  0  0
   13.1572   46.7421  133.8441 H   0  0  0  0  0  0  0  0  0  0  0  0
    9.5348   50.3614  134.8315 H   0  0  0  0  0  0  0  0  0  0  0  0
    9.2124   50.8622  130.1772 H   0  0  0  0  0  0  0  0  0  0  0  0
    8.0244   46.7575  130.4698 H   0  0  0  0  0  0  0  0  0  0  0  0
    9.4466   44.7355  132.0327 H   0  0  0  0  0  0  0  0  0  0  0  0
   12.1212   43.4011  135.9171 C   0  0  0  0  0  0  0  0  0  0  0  0
   11.9722   44.9252  135.8029 C   0  0  0  0  0  0  0  0  0  0  0  0
   10.7068   45.2802  136.5197 C   0  0  0  0  0  0  0  0  0  0  0  0
    9.1643   47.6495  135.1957 C   0  0  0  0  0  0  0  0  0  0  0  0
    8.5877   46.7981  134.1263 C   0  0  0  0  0  0  0  0  0  0  0  0
    8.8391   46.9241  132.8082 C   0  0  0  0  0  0  0  0  0  0  0  0
    8.2461   46.0985  131.8904 C   0  0  0  0  0  0  0  0  0  0  0  0
    7.3675   45.1027  132.2696 C   0  0  0  0  0  0  0  0  0  0  0  0
    7.1217   44.9877  133.6261 C   0  0  0  0  0  0  0  0  0  0  0  0
    7.7069   45.8070  134.5626 C   0  0  0  0  0  0  0  0  0  0  0  0
    7.2534   50.4686  131.7872 C   0  0  0  0  0  0  0  0  0  0  0  0
    6.2023   50.0779  130.8500 C   0  0  0  0  0  0  0  0  0  0  0  0
    5.3498   50.9624  130.1690 C   0  0  0  0  0  0  0  0  0  0  0  0
    4.5082   50.2465  129.4319 N   0  0  0  0  0  0  0  0  0  0  0  0
    4.7555   48.9488  129.5858 C   0  0  0  0  0  0  0  0  0  0  0  0
    4.1756   47.8488  129.0306 C   0  0  0  0  0  0  0  0  0  0  0  0
    4.6403   46.5876  129.3440 C   0  0  0  0  0  0  0  0  0  0  0  0
    5.6890   46.4358  130.2158 C   0  0  0  0  0  0  0  0  0  0  0  0
    6.2661   47.5327  130.7691 C   0  0  0  0  0  0  0  0  0  0  0  0
    5.8116   48.8235  130.4679 C   0  0  0  0  0  0  0  0  0  0  0  0
    3.7697   50.6757  128.8289 H   0  0  0  0  0  0  0  0  0  0  0  0
    7.3857   48.3387  128.2570 C   0  0  0  0  0  0  0  0  0  0  0  0
    7.4952   49.3326  127.1761 C   0  0  0  0  0  0  0  0  0  0  0  0
    7.6800   49.2524  125.8364 C   0  0  0  0  0  0  0  0  0  0  0  0
    7.7058   50.4704  125.2799 N   0  0  0  0  0  0  0  0  0  0  0  0
    7.5383   51.3582  126.2501 C   0  0  0  0  0  0  0  0  0  0  0  0
    7.4946   52.7431  126.1547 C   0  0  0  0  0  0  0  0  0  0  0  0
    7.3114   53.4864  127.2787 C   0  0  0  0  0  0  0  0  0  0  0  0
    7.1740   52.8490  128.4808 C   0  0  0  0  0  0  0  0  0  0  0  0
    7.2186   51.4657  128.5703 C   0  0  0  0  0  0  0  0  0  0  0  0
    7.4021   50.6961  127.4513 C   0  0  0  0  0  0  0  0  0  0  0  0
    7.8390   50.6680  124.2436 H   0  0  0  0  0  0  0  0  0  0  0  0
   10.8498   42.4197  130.9830 C   0  0  0  0  0  0  0  0  0  0  0  0
    9.4940   42.0447  131.3457 C   0  0  0  0  0  0  0  0  0  0  0  0
    8.5467   41.8013  130.3654 C   0  0  0  0  0  0  0  0  0  0  0  0
    7.2647   41.4666  130.6960 C   0  0  0  0  0  0  0  0  0  0  0  0
    6.8891   41.3640  131.9983 C   0  0  0  0  0  0  0  0  0  0  0  0
    7.7998   41.5976  133.0075 C   0  0  0  0  0  0  0  0  0  0  0  0
    9.0855   41.9336  132.6740 C   0  0  0  0  0  0  0  0  0  0  0  0
 33 34  1  0  0  0
 34 35  1  0  0  0
 34  1  1  0  0  0
  1  2  1  0  0  0
  2  3  1  0  0  0
  3  4  2  0  0  0
  3  5  1  0  0  0
  5 36  1  0  0  0
 36 37  1  0  0  0
 37 38  2  0  0  0
 38 39  1  0  0  0
 39 40  2  0  0  0
 40 41  1  0  0  0
 41 42  2  0  0  0
  5  6  1  0  0  0
  6  7  1  0  0  0
  7  8  2  0  0  0
  7  9  1  0  0  0
  9 43  1  0  0  0
 43 44  1  0  0  0
 44 45  2  0  0  0
 45 46  1  0  0  0
 46 47  1  0  0  0
 47 48  2  0  0  0
 48 49  1  0  0  0
 49 50  2  0  0  0
 50 51  1  0  0  0
 51 52  2  0  0  0
  9 10  1  0  0  0
 10 11  1  0  0  0
 11 12  2  0  0  0
 11 13  1  0  0  0
 13 54  1  0  0  0
 54 55  1  0  0  0
 55 56  2  0  0  0
 56 57  1  0  0  0
 57 58  1  0  0  0
 58 59  2  0  0  0
 59 60  1  0  0  0
 60 61  2  0  0  0
 61 62  1  0  0  0
 62 63  2  0  0  0
 13 14  1  0  0  0
 14 15  1  0  0  0
 15 16  2  0  0  0
 15 17  1  0  0  0
 17 18  1  0  0  0
 18 19  1  0  0  0
 19 20  1  0  0  0
 20 21  1  0  0  0
 21 22  1  0  0  0
 22 23  2  0  0  0
 22 24  1  0  0  0
 24 65  1  0  0  0
 65 66  1  0  0  0
 66 67  2  0  0  0
 67 68  1  0  0  0
 68 69  2  0  0  0
 69 70  1  0  0  0
 70 71  2  0  0  0
 24 25  1  0  0  0
 25 26  1  0  0  0
 26 27  2  0  0  0
 26  1  1  0  0  0
 42 37  1  0  0  0
 52 44  1  0  0  0
 63 55  1  0  0  0
 21 17  1  0  0  0
 71 66  1  0  0  0
 52 47  1  0  0  0
 63 58  1  0  0  0
  2 28  1  0  0  0
  6 29  1  0  0  0
 46 53  1  0  0  0
 10 30  1  0  0  0
 57 64  1  0  0  0
 14 31  1  0  0  0
 25 32  1  0  0  0
M  END
> <minimizedAffinity>
51.76545

> <CNNscore>
0.2588200867

> <CNNaffinity>
8.3478832245

> <CNN_VS>
2.1605999470

> <CNNaffinity_variance>
1.7500063181

$$$$
[H]c1c([H])c([H])c(C([H])([H])[C@@]2([H])C(=O)N3C([H])([H])C([H])([H])C([H])([H])[C@@]3([H])C(=O)N([H])[C@@]([H])(C([H])([H])c3c([H])n([H])c4c([H])c([H])c([H])c([H])c34)C(=O)N([H])[C@]([H])(C([H])([H])c3c([H])n([H])c4c([H])c([H])c([H])c([H])c34)C(=O)N([H])[C@@]([H])(C([H])([H])c3c([H])c([H])c([H])c([H])c3[H])C(=O)N([H])[C@@]([H])(C([H])(C([H])([H])[H])C([H])([H])[H])C(=O)N2[H])c([H])c1[H]


 71 78  0  0  0  0  0  0  0  0999 V2000
   11.3345   44.1377  135.6150 C   0  0  0  0  0  0  0  0  0  0  0  0
   10.0071   43.7004  135.2966 N   0  0  0  0  0  0  0  0  0  0  0  0
    9.4309   43.2155  134.1219 C   0  0  0  0  0  0  0  0  0  0  0  0
    8.4992   43.9757  133.6538 O   0  0  0  0  0  0  0  0  0  0  0  0
    9.6676   42.0193  133.3201 C   0  0  0  0  0  0  0  0  0  0  0  0
    8.7075   41.7709  132.2718 N   0  0  0  0  0  0  0  0  0  0  0  0
    7.8772   42.5862  131.5258 C   0  0  0  0  0  0  0  0  0  0  0  0
    6.6078   42.4913  131.8112 O   0  0  0  0  0  0  0  0  0  0  0  0
    8.1432   43.5570  130.4531 C   0  0  0  0  0  0  0  0  0  0  0  0
    7.1517   44.6211  130.5101 N   0  0  0  0  0  0  0  0  0  0  0  0
    7.2843   45.9487  130.9171 C   0  0  0  0  0  0  0  0  0  0  0  0
    6.6164   46.2547  131.9953 O   0  0  0  0  0  0  0  0  0  0  0  0
    8.0468   47.0599  130.3374 C   0  0  0  0  0  0  0  0  0  0  0  0
    9.4547   47.0869  130.7563 N   0  0  0  0  0  0  0  0  0  0  0  0
   10.0621   48.2216  131.3678 C   0  0  0  0  0  0  0  0  0  0  0  0
   11.2641   48.4283  131.0424 O   0  0  0  0  0  0  0  0  0  0  0  0
    9.4224   49.1086  132.2906 C   0  0  0  0  0  0  0  0  0  0  0  0
   10.0860   50.4854  132.2312 C   0  0  0  0  0  0  0  0  0  0  0  0
    9.3947   51.1757  133.3737 C   0  0  0  0  0  0  0  0  0  0  0  0
    8.7017   50.0481  134.1493 C   0  0  0  0  0  0  0  0  0  0  0  0
    9.4280   48.8433  133.7025 N   0  0  0  0  0  0  0  0  0  0  0  0
    9.9083   47.7822  134.4672 C   0  0  0  0  0  0  0  0  0  0  0  0
    9.0132   47.0491  135.0942 O   0  0  0  0  0  0  0  0  0  0  0  0
   11.2724   47.2722  134.7469 C   0  0  0  0  0  0  0  0  0  0  0  0
   11.6593   46.0980  134.0145 N   0  0  0  0  0  0  0  0  0  0  0  0
   12.0798   44.8543  134.5697 C   0  0  0  0  0  0  0  0  0  0  0  0
   13.1681   44.3012  134.1572 O   0  0  0  0  0  0  0  0  0  0  0  0
    9.3446   43.7885  136.1780 H   0  0  0  0  0  0  0  0  0  0  0  0
    8.6150   40.7142  132.0292 H   0  0  0  0  0  0  0  0  0  0  0  0
    6.1812   44.2850  130.2006 H   0  0  0  0  0  0  0  0  0  0  0  0
    9.9850   46.2185  130.5729 H   0  0  0  0  0  0  0  0  0  0  0  0
   11.6503   46.1348  132.9758 H   0  0  0  0  0  0  0  0  0  0  0  0
   11.9991   43.3068  137.7996 C   0  0  0  0  0  0  0  0  0  0  0  0
   12.1769   43.0763  136.2919 C   0  0  0  0  0  0  0  0  0  0  0  0
   13.6228   43.3257  135.9948 C   0  0  0  0  0  0  0  0  0  0  0  0
   11.0277   41.8793  132.6973 C   0  0  0  0  0  0  0  0  0  0  0  0
   10.9528   40.8486  131.6329 C   0  0  0  0  0  0  0  0  0  0  0  0
   10.3743   41.0134  130.4267 C   0  0  0  0  0  0  0  0  0  0  0  0
   10.3403   39.9958  129.5108 C   0  0  0  0  0  0  0  0  0  0  0  0
   10.8944   38.7593  129.7777 C   0  0  0  0  0  0  0  0  0  0  0  0
   11.4841   38.6082  131.0200 C   0  0  0  0  0  0  0  0  0  0  0  0
   11.5280   39.6177  131.9528 C   0  0  0  0  0  0  0  0  0  0  0  0
    8.0958   43.0232  129.0487 C   0  0  0  0  0  0  0  0  0  0  0  0
    9.2573   43.2521  128.1918 C   0  0  0  0  0  0  0  0  0  0  0  0
    9.3100   43.0050  126.8101 C   0  0  0  0  0  0  0  0  0  0  0  0
   10.5305   43.3032  126.3791 N   0  0  0  0  0  0  0  0  0  0  0  0
   11.2808   43.7311  127.3904 C   0  0  0  0  0  0  0  0  0  0  0  0
   12.5723   44.1606  127.4358 C   0  0  0  0  0  0  0  0  0  0  0  0
   13.1215   44.5809  128.6301 C   0  0  0  0  0  0  0  0  0  0  0  0
   12.3691   44.5685  129.7775 C   0  0  0  0  0  0  0  0  0  0  0  0
   11.0821   44.1397  129.7316 C   0  0  0  0  0  0  0  0  0  0  0  0
   10.5022   43.7068  128.5317 C   0  0  0  0  0  0  0  0  0  0  0  0
   10.8239   43.2037  125.3805 H   0  0  0  0  0  0  0  0  0  0  0  0
    8.0098   47.1413  128.8261 C   0  0  0  0  0  0  0  0  0  0  0  0
    7.6629   48.4747  128.3065 C   0  0  0  0  0  0  0  0  0  0  0  0
    7.6512   49.0320  127.0717 C   0  0  0  0  0  0  0  0  0  0  0  0
    7.2437   50.3069  127.1225 N   0  0  0  0  0  0  0  0  0  0  0  0
    6.9853   50.5952  128.3904 C   0  0  0  0  0  0  0  0  0  0  0  0
    6.5366   51.7943  128.9288 C   0  0  0  0  0  0  0  0  0  0  0  0
    6.3283   51.8901  130.2693 C   0  0  0  0  0  0  0  0  0  0  0  0
    6.5667   50.7984  131.0578 C   0  0  0  0  0  0  0  0  0  0  0  0
    7.0147   49.6035  130.5147 C   0  0  0  0  0  0  0  0  0  0  0  0
    7.2316   49.4834  129.1669 C   0  0  0  0  0  0  0  0  0  0  0  0
    7.1518   50.9547  126.2842 H   0  0  0  0  0  0  0  0  0  0  0  0
   12.3197   48.3840  134.6866 C   0  0  0  0  0  0  0  0  0  0  0  0
   13.3572   48.3123  135.7009 C   0  0  0  0  0  0  0  0  0  0  0  0
   13.3566   49.1932  136.7694 C   0  0  0  0  0  0  0  0  0  0  0  0
   14.3379   49.1464  137.7180 C   0  0  0  0  0  0  0  0  0  0  0  0
   15.3394   48.2311  137.6346 C   0  0  0  0  0  0  0  0  0  0  0  0
   15.3794   47.3343  136.5874 C   0  0  0  0  0  0  0  0  0  0  0  0
   14.3943   47.3830  135.6364 C   0  0  0  0  0  0  0  0  0  0  0  0
 33 34  1  0  0  0
 34 35  1  0  0  0
 34  1  1  0  0  0
  1  2  1  0  0  0
  2  3  1  0  0  0
  3  4  2  0  0  0
  3  5  1  0  0  0
  5 36  1  0  0  0
 36 37  1  0  0  0
 37 38  2  0  0  0
 38 39  1  0  0  0
 39 40  2  0  0  0
 40 41  1  0  0  0
 41 42  2  0  0  0
  5  6  1  0  0  0
  6  7  1  0  0  0
  7  8  2  0  0  0
  7  9  1  0  0  0
  9 43  1  0  0  0
 43 44  1  0  0  0
 44 45  2  0  0  0
 45 46  1  0  0  0
 46 47  1  0  0  0
 47 48  2  0  0  0
 48 49  1  0  0  0
 49 50  2  0  0  0
 50 51  1  0  0  0
 51 52  2  0  0  0
  9 10  1  0  0  0
 10 11  1  0  0  0
 11 12  2  0  0  0
 11 13  1  0  0  0
 13 54  1  0  0  0
 54 55  1  0  0  0
 55 56  2  0  0  0
 56 57  1  0  0  0
 57 58  1  0  0  0
 58 59  2  0  0  0
 59 60  1  0  0  0
 60 61  2  0  0  0
 61 62  1  0  0  0
 62 63  2  0  0  0
 13 14  1  0  0  0
 14 15  1  0  0  0
 15 16  2  0  0  0
 15 17  1  0  0  0
 17 18  1  0  0  0
 18 19  1  0  0  0
 19 20  1  0  0  0
 20 21  1  0  0  0
 21 22  1  0  0  0
 22 23  2  0  0  0
 22 24  1  0  0  0
 24 65  1  0  0  0
 65 66  1  0  0  0
 66 67  2  0  0  0
 67 68  1  0  0  0
 68 69  2  0  0  0
 69 70  1  0  0  0
 70 71  2  0  0  0
 24 25  1  0  0  0
 25 26  1  0  0  0
 26 27  2  0  0  0
 26  1  1  0  0  0
 42 37  1  0  0  0
 52 44  1  0  0  0
 63 55  1  0  0  0
 21 17  1  0  0  0
 71 66  1  0  0  0
 52 47  1  0  0  0
 63 58  1  0  0  0
  2 28  1  0  0  0
  6 29  1  0  0  0
 46 53  1  0  0  0
 10 30  1  0  0  0
 57 64  1  0  0  0
 14 31  1  0  0  0
 25 32  1  0  0  0
M  END
> <minimizedAffinity>
63.74827

> <CNNscore>
0.2450092584

> <CNNaffinity>
8.2066888809

> <CNN_VS>
2.0107147694

> <CNNaffinity_variance>
1.9543775320

$$$$
[H]Oc1c([H])c([H])c(C([H])([H])[C@@]2([H])C(=O)N([H])[C@@]([H])([C@@]([H])(C([H])([H])[H])C([H])([H])C([H])([H])[H])C(=O)N([H])[C@@]([H])(C([H])([H])c3c([H])c([H])c([H])c([H])c3[H])C(=O)N3C([H])([H])C([H])([H])C([H])([H])[C@@]3([H])C(=O)N([H])[C@@]([H])(C([H])([H])c3c([H])nc([H])n3[H])C(=O)N([H])[C@@]([H])(C([H])([H])c3c([H])nc([H])n3[H])C(=O)N2[H])c([H])c1[H]


 66 71  0  0  0  0  0  0  0  0999 V2000
   10.0447   44.1926  133.7426 C   0  0  0  0  0  0  0  0  0  0  0  0
    9.1585   45.3709  133.8836 N   0  0  0  0  0  0  0  0  0  0  0  0
    9.5603   46.6681  134.1796 C   0  0  0  0  0  0  0  0  0  0  0  0
    8.7123   47.4128  134.7904 O   0  0  0  0  0  0  0  0  0  0  0  0
   10.8966   47.2714  133.8488 C   0  0  0  0  0  0  0  0  0  0  0  0
   11.1735   47.3890  132.4648 N   0  0  0  0  0  0  0  0  0  0  0  0
   10.7027   48.1724  131.4224 C   0  0  0  0  0  0  0  0  0  0  0  0
   11.6409   48.6207  130.6236 O   0  0  0  0  0  0  0  0  0  0  0  0
    9.3826   48.6273  130.9904 C   0  0  0  0  0  0  0  0  0  0  0  0
    8.2469   47.8452  131.3274 N   0  0  0  0  0  0  0  0  0  0  0  0
    7.7268   46.7079  130.6794 C   0  0  0  0  0  0  0  0  0  0  0  0
    6.8382   45.9901  131.2672 O   0  0  0  0  0  0  0  0  0  0  0  0
    8.1068   46.2152  129.3188 C   0  0  0  0  0  0  0  0  0  0  0  0
    8.0396   44.7651  129.3546 N   0  0  0  0  0  0  0  0  0  0  0  0
    8.9391   43.8899  128.7119 C   0  0  0  0  0  0  0  0  0  0  0  0
    8.5166   42.7258  128.4765 O   0  0  0  0  0  0  0  0  0  0  0  0
   10.2587   44.2381  128.3232 C   0  0  0  0  0  0  0  0  0  0  0  0
   10.7434   43.3929  127.1011 C   0  0  0  0  0  0  0  0  0  0  0  0
   12.1127   44.0302  126.9374 C   0  0  0  0  0  0  0  0  0  0  0  0
   12.3973   44.7596  128.2218 C   0  0  0  0  0  0  0  0  0  0  0  0
   11.4096   44.0929  129.1475 N   0  0  0  0  0  0  0  0  0  0  0  0
   11.6709   43.5610  130.3985 C   0  0  0  0  0  0  0  0  0  0  0  0
   12.6514   44.1918  131.0144 O   0  0  0  0  0  0  0  0  0  0  0  0
   11.1227   42.4703  131.1959 C   0  0  0  0  0  0  0  0  0  0  0  0
    9.8097   42.5724  131.7292 N   0  0  0  0  0  0  0  0  0  0  0  0
    9.3418   43.2464  132.8585 C   0  0  0  0  0  0  0  0  0  0  0  0
    8.1176   43.0367  133.2117 O   0  0  0  0  0  0  0  0  0  0  0  0
    8.1135   45.2160  133.7494 H   0  0  0  0  0  0  0  0  0  0  0  0
   11.9560   46.6878  132.1510 H   0  0  0  0  0  0  0  0  0  0  0  0
    7.7010   48.1539  132.1846 H   0  0  0  0  0  0  0  0  0  0  0  0
    7.2156   44.4013  129.9313 H   0  0  0  0  0  0  0  0  0  0  0  0
    9.0688   42.0285  131.1813 H   0  0  0  0  0  0  0  0  0  0  0  0
   10.2554   43.6062  135.1105 C   0  0  0  0  0  0  0  0  0  0  0  0
    9.6900   42.2004  135.2642 C   0  0  0  0  0  0  0  0  0  0  0  0
   12.7367   44.0201  134.7921 C   0  0  0  0  0  0  0  0  0  0  0  0
   11.6003   43.7527  135.7086 C   0  0  0  0  0  0  0  0  0  0  0  0
   11.1073   48.4682  134.7191 C   0  0  0  0  0  0  0  0  0  0  0  0
   12.3437   48.4772  135.5098 C   0  0  0  0  0  0  0  0  0  0  0  0
   12.5504   49.3691  136.5132 C   0  0  0  0  0  0  0  0  0  0  0  0
   13.7091   49.4110  137.2711 C   0  0  0  0  0  0  0  0  0  0  0  0
   14.6982   48.4950  136.9843 C   0  0  0  0  0  0  0  0  0  0  0  0
   15.8618   48.5146  137.7231 O   0  0  0  0  0  0  0  0  0  0  0  0
   14.5375   47.5595  135.9674 C   0  0  0  0  0  0  0  0  0  0  0  0
   13.3616   47.5676  135.2474 C   0  0  0  0  0  0  0  0  0  0  0  0
   16.0131   49.1790  138.4673 H   0  0  0  0  0  0  0  0  0  0  0  0
    9.1126   50.0787  131.3740 C   0  0  0  0  0  0  0  0  0  0  0  0
    8.1322   50.7139  130.4395 C   0  0  0  0  0  0  0  0  0  0  0  0
    8.0174   50.4750  129.0802 C   0  0  0  0  0  0  0  0  0  0  0  0
    7.0325   51.2347  128.5938 N   0  0  0  0  0  0  0  0  0  0  0  0
    6.5015   51.9595  129.5842 C   0  0  0  0  0  0  0  0  0  0  0  0
    7.1876   51.6261  130.7031 N   0  0  0  0  0  0  0  0  0  0  0  0
    6.9655   52.0610  131.6257 H   0  0  0  0  0  0  0  0  0  0  0  0
    7.1126   46.7386  128.2799 C   0  0  0  0  0  0  0  0  0  0  0  0
    5.9355   47.3801  128.9061 C   0  0  0  0  0  0  0  0  0  0  0  0
    4.8896   46.7687  129.5526 C   0  0  0  0  0  0  0  0  0  0  0  0
    4.0376   47.7382  129.9699 N   0  0  0  0  0  0  0  0  0  0  0  0
    4.5083   48.9265  129.6106 C   0  0  0  0  0  0  0  0  0  0  0  0
    5.6618   48.7194  128.9634 N   0  0  0  0  0  0  0  0  0  0  0  0
    6.2921   49.4393  128.5485 H   0  0  0  0  0  0  0  0  0  0  0  0
   11.3188   41.0751  130.5757 C   0  0  0  0  0  0  0  0  0  0  0  0
   10.0454   40.4164  130.2853 C   0  0  0  0  0  0  0  0  0  0  0  0
    8.8298   41.0274  130.4525 C   0  0  0  0  0  0  0  0  0  0  0  0
    7.6560   40.3319  130.1409 C   0  0  0  0  0  0  0  0  0  0  0  0
    7.7122   39.0357  129.6670 C   0  0  0  0  0  0  0  0  0  0  0  0
    8.9141   38.4214  129.4982 C   0  0  0  0  0  0  0  0  0  0  0  0
   10.0605   39.1252  129.8117 C   0  0  0  0  0  0  0  0  0  0  0  0
 35 36  1  0  0  0
 36 33  1  0  0  0
 33 34  1  0  0  0
 33  1  1  0  0  0
  1  2  1  0  0  0
  2  3  1  0  0  0
  3  4  2  0  0  0
  3  5  1  0  0  0
  5 37  1  0  0  0
 37 38  1  0  0  0
 38 39  2  0  0  0
 39 40  1  0  0  0
 40 41  2  0  0  0
 41 42  1  0  0  0
 41 43  1  0  0  0
 43 44  2  0  0  0
  5  6  1  0  0  0
  6  7  1  0  0  0
  7  8  2  0  0  0
  7  9  1  0  0  0
  9 46  1  0  0  0
 46 47  1  0  0  0
 47 48  2  0  0  0
 48 49  1  0  0  0
 49 50  2  0  0  0
 50 51  1  0  0  0
  9 10  1  0  0  0
 10 11  1  0  0  0
 11 12  2  0  0  0
 11 13  1  0  0  0
 13 53  1  0  0  0
 53 54  1  0  0  0
 54 55  2  0  0  0
 55 56  1  0  0  0
 56 57  2  0  0  0
 57 58  1  0  0  0
 13 14  1  0  0  0
 14 15  1  0  0  0
 15 16  2  0  0  0
 15 17  1  0  0  0
 17 18  1  0  0  0
 18 19  1  0  0  0
 19 20  1  0  0  0
 20 21  1  0  0  0
 21 22  1  0  0  0
 22 23  2  0  0  0
 22 24  1  0  0  0
 24 60  1  0  0  0
 60 61  1  0  0  0
 61 62  2  0  0  0
 62 63  1  0  0  0
 63 64  2  0  0  0
 64 65  1  0  0  0
 65 66  2  0  0  0
 24 25  1  0  0  0
 25 26  1  0  0  0
 26 27  2  0  0  0
 26  1  1  0  0  0
 44 38  1  0  0  0
 51 47  1  0  0  0
 58 54  1  0  0  0
 21 17  1  0  0  0
 66 61  1  0  0  0
  2 28  1  0  0  0
 42 45  1  0  0  0
  6 29  1  0  0  0
 51 52  1  0  0  0
 10 30  1  0  0  0
 58 59  1  0  0  0
 14 31  1  0  0  0
 25 32  1  0  0  0
M  END
> <minimizedAffinity>
43.39228

> <CNNscore>
0.2970483601

> <CNNaffinity>
8.1303081512

> <CNN_VS>
2.4150946140

> <CNNaffinity_variance>
1.0563325882

$$$$
[H]Oc1c([H])c([H])c(C([H])([H])[C@@]2([H])C(=O)N([H])[C@@]([H])([C@@]([H])(C([H])([H])[H])C([H])([H])C([H])([H])[H])C(=O)N([H])[C@@]([H])(C([H])([H])c3c([H])c([H])c([H])c([H])c3[H])C(=O)N3C([H])([H])C([H])([H])C([H])([H])[C@@]3([H])C(=O)N([H])[C@@]([H])(C([H])([H])c3c([H])nc([H])n3[H])C(=O)N([H])[C@@]([H])(C([H])([H])c3c([H])nc([H])n3[H])C(=O)N2[H])c([H])c1[H]


 66 71  0  0  0  0  0  0  0  0999 V2000
   10.2850   44.5858  127.9920 C   0  0  0  0  0  0  0  0  0  0  0  0
   11.0600   45.7512  128.4763 N   0  0  0  0  0  0  0  0  0  0  0  0
   10.5468   47.0046  128.7884 C   0  0  0  0  0  0  0  0  0  0  0  0
   11.3387   48.0054  128.6541 O   0  0  0  0  0  0  0  0  0  0  0  0
    9.1503   47.2884  129.2664 C   0  0  0  0  0  0  0  0  0  0  0  0
    8.8226   46.7248  130.5238 N   0  0  0  0  0  0  0  0  0  0  0  0
    9.1863   46.9594  131.8408 C   0  0  0  0  0  0  0  0  0  0  0  0
    8.1867   46.9152  132.6882 O   0  0  0  0  0  0  0  0  0  0  0  0
   10.4442   47.2496  132.5261 C   0  0  0  0  0  0  0  0  0  0  0  0
   11.6581   46.7971  131.9456 N   0  0  0  0  0  0  0  0  0  0  0  0
   12.2634   45.5280  132.0268 C   0  0  0  0  0  0  0  0  0  0  0  0
   13.2328   45.2327  131.2373 O   0  0  0  0  0  0  0  0  0  0  0  0
   11.8912   44.4306  132.9731 C   0  0  0  0  0  0  0  0  0  0  0  0
   12.0957   43.1746  132.2736 N   0  0  0  0  0  0  0  0  0  0  0  0
   11.2641   42.0404  132.3719 C   0  0  0  0  0  0  0  0  0  0  0  0
   11.7871   40.9340  132.0695 O   0  0  0  0  0  0  0  0  0  0  0  0
    9.9065   42.0735  132.7839 C   0  0  0  0  0  0  0  0  0  0  0  0
    9.4674   40.7231  133.4371 C   0  0  0  0  0  0  0  0  0  0  0  0
    8.0399   41.1128  133.7809 C   0  0  0  0  0  0  0  0  0  0  0  0
    7.7262   42.3370  132.9651 C   0  0  0  0  0  0  0  0  0  0  0  0
    8.7994   42.2517  131.9077 N   0  0  0  0  0  0  0  0  0  0  0  0
    8.6267   42.3508  130.5379 C   0  0  0  0  0  0  0  0  0  0  0  0
    7.6099   43.1268  130.2176 O   0  0  0  0  0  0  0  0  0  0  0  0
    9.2987   41.8014  129.3663 C   0  0  0  0  0  0  0  0  0  0  0  0
   10.6116   42.2322  129.0350 N   0  0  0  0  0  0  0  0  0  0  0  0
   11.0473   43.3871  128.3832 C   0  0  0  0  0  0  0  0  0  0  0  0
   12.2957   43.4527  128.0601 O   0  0  0  0  0  0  0  0  0  0  0  0
   12.1105   45.6245  128.5965 H   0  0  0  0  0  0  0  0  0  0  0  0
    8.1006   45.9059  130.4206 H   0  0  0  0  0  0  0  0  0  0  0  0
   12.1976   47.5084  131.3701 H   0  0  0  0  0  0  0  0  0  0  0  0
   12.9672   43.1814  131.6535 H   0  0  0  0  0  0  0  0  0  0  0  0
   11.3838   41.5479  129.3186 H   0  0  0  0  0  0  0  0  0  0  0  0
   10.1712   44.6950  126.4972 C   0  0  0  0  0  0  0  0  0  0  0  0
    9.0345   43.8684  125.9107 C   0  0  0  0  0  0  0  0  0  0  0  0
   10.2860   46.1594  124.4302 C   0  0  0  0  0  0  0  0  0  0  0  0
   10.2579   46.0500  125.9102 C   0  0  0  0  0  0  0  0  0  0  0  0
    8.8538   48.7355  129.0382 C   0  0  0  0  0  0  0  0  0  0  0  0
    7.4335   49.1044  129.0189 C   0  0  0  0  0  0  0  0  0  0  0  0
    7.0256   50.3916  128.8712 C   0  0  0  0  0  0  0  0  0  0  0  0
    5.6943   50.7743  128.8591 C   0  0  0  0  0  0  0  0  0  0  0  0
    4.7411   49.7896  129.0049 C   0  0  0  0  0  0  0  0  0  0  0  0
    3.4087   50.1427  128.9966 O   0  0  0  0  0  0  0  0  0  0  0  0
    5.1045   48.4556  129.1589 C   0  0  0  0  0  0  0  0  0  0  0  0
    6.4459   48.1367  129.1633 C   0  0  0  0  0  0  0  0  0  0  0  0
    3.1086   51.1000  128.8878 H   0  0  0  0  0  0  0  0  0  0  0  0
   10.5875   48.7264  132.8796 C   0  0  0  0  0  0  0  0  0  0  0  0
    9.4574   49.5308  132.3198 C   0  0  0  0  0  0  0  0  0  0  0  0
    9.5630   50.6099  131.4582 C   0  0  0  0  0  0  0  0  0  0  0  0
    8.3364   51.0648  131.1895 N   0  0  0  0  0  0  0  0  0  0  0  0
    7.4357   50.3235  131.8433 C   0  0  0  0  0  0  0  0  0  0  0  0
    8.1415   49.3921  132.5275 N   0  0  0  0  0  0  0  0  0  0  0  0
    7.6653   48.6831  133.1276 H   0  0  0  0  0  0  0  0  0  0  0  0
   12.8004   44.4742  134.2033 C   0  0  0  0  0  0  0  0  0  0  0  0
   12.0767   44.1249  135.4458 C   0  0  0  0  0  0  0  0  0  0  0  0
   10.9794   44.7512  135.9837 C   0  0  0  0  0  0  0  0  0  0  0  0
   10.6476   44.0969  137.1247 N   0  0  0  0  0  0  0  0  0  0  0  0
   11.4916   43.0906  137.3199 C   0  0  0  0  0  0  0  0  0  0  0  0
   12.3641   43.0994  136.3046 N   0  0  0  0  0  0  0  0  0  0  0  0
   13.1592   42.4428  136.1485 H   0  0  0  0  0  0  0  0  0  0  0  0
    9.2165   40.2684  129.2530 C   0  0  0  0  0  0  0  0  0  0  0  0
   10.1006   39.7439  128.2122 C   0  0  0  0  0  0  0  0  0  0  0  0
   10.0031   40.1047  126.8934 C   0  0  0  0  0  0  0  0  0  0  0  0
   10.8955   39.5659  125.9598 C   0  0  0  0  0  0  0  0  0  0  0  0
   11.8728   38.6738  126.3557 C   0  0  0  0  0  0  0  0  0  0  0  0
   11.9770   38.3099  127.6623 C   0  0  0  0  0  0  0  0  0  0  0  0
   11.0864   38.8531  128.5677 C   0  0  0  0  0  0  0  0  0  0  0  0
 35 36  1  0  0  0
 36 33  1  0  0  0
 33 34  1  0  0  0
 33  1  1  0  0  0
  1  2  1  0  0  0
  2  3  1  0  0  0
  3  4  2  0  0  0
  3  5  1  0  0  0
  5 37  1  0  0  0
 37 38  1  0  0  0
 38 39  2  0  0  0
 39 40  1  0  0  0
 40 41  2  0  0  0
 41 42  1  0  0  0
 41 43  1  0  0  0
 43 44  2  0  0  0
  5  6  1  0  0  0
  6  7  1  0  0  0
  7  8  2  0  0  0
  7  9  1  0  0  0
  9 46  1  0  0  0
 46 47  1  0  0  0
 47 48  2  0  0  0
 48 49  1  0  0  0
 49 50  2  0  0  0
 50 51  1  0  0  0
  9 10  1  0  0  0
 10 11  1  0  0  0
 11 12  2  0  0  0
 11 13  1  0  0  0
 13 53  1  0  0  0
 53 54  1  0  0  0
 54 55  2  0  0  0
 55 56  1  0  0  0
 56 57  2  0  0  0
 57 58  1  0  0  0
 13 14  1  0  0  0
 14 15  1  0  0  0
 15 16  2  0  0  0
 15 17  1  0  0  0
 17 18  1  0  0  0
 18 19  1  0  0  0
 19 20  1  0  0  0
 20 21  1  0  0  0
 21 22  1  0  0  0
 22 23  2  0  0  0
 22 24  1  0  0  0
 24 60  1  0  0  0
 60 61  1  0  0  0
 61 62  2  0  0  0
 62 63  1  0  0  0
 63 64  2  0  0  0
 64 65  1  0  0  0
 65 66  2  0  0  0
 24 25  1  0  0  0
 25 26  1  0  0  0
 26 27  2  0  0  0
 26  1  1  0  0  0
 44 38  1  0  0  0
 51 47  1  0  0  0
 58 54  1  0  0  0
 21 17  1  0  0  0
 66 61  1  0  0  0
  2 28  1  0  0  0
 42 45  1  0  0  0
  6 29  1  0  0  0
 51 52  1  0  0  0
 10 30  1  0  0  0
 58 59  1  0  0  0
 14 31  1  0  0  0
 25 32  1  0  0  0
M  END
> <minimizedAffinity>
50.19316

> <CNNscore>
0.2754973471

> <CNNaffinity>
8.0305004120

> <CNN_VS>
2.2123816013

> <CNNaffinity_variance>
1.2688003778

$$$$
[H]Oc1c([H])c([H])c(C([H])([H])[C@@]2([H])C(=O)N([H])[C@@]([H])([C@@]([H])(C([H])([H])[H])C([H])([H])C([H])([H])[H])C(=O)N([H])[C@@]([H])(C([H])([H])c3c([H])c([H])c([H])c([H])c3[H])C(=O)N3C([H])([H])C([H])([H])C([H])([H])[C@@]3([H])C(=O)N([H])[C@@]([H])(C([H])([H])c3c([H])nc([H])n3[H])C(=O)N([H])[C@@]([H])(C([H])([H])c3c([H])nc([H])n3[H])C(=O)N2[H])c([H])c1[H]


 66 71  0  0  0  0  0  0  0  0999 V2000
   10.3066   44.3349  133.8823 C   0  0  0  0  0  0  0  0  0  0  0  0
    9.4737   45.5469  134.0582 N   0  0  0  0  0  0  0  0  0  0  0  0
    9.9403   46.8359  134.2876 C   0  0  0  0  0  0  0  0  0  0  0  0
    9.1670   47.6249  134.9407 O   0  0  0  0  0  0  0  0  0  0  0  0
   11.2666   47.3832  133.8400 C   0  0  0  0  0  0  0  0  0  0  0  0
   11.4400   47.4571  132.4363 N   0  0  0  0  0  0  0  0  0  0  0  0
   10.9169   48.2310  131.4118 C   0  0  0  0  0  0  0  0  0  0  0  0
   11.8054   48.6261  130.5323 O   0  0  0  0  0  0  0  0  0  0  0  0
    9.5835   48.7217  131.0693 C   0  0  0  0  0  0  0  0  0  0  0  0
    8.4515   47.9886  131.5126 N   0  0  0  0  0  0  0  0  0  0  0  0
    7.8455   46.8550  130.9371 C   0  0  0  0  0  0  0  0  0  0  0  0
    6.9812   46.1837  131.6099 O   0  0  0  0  0  0  0  0  0  0  0  0
    8.1031   46.3160  129.5654 C   0  0  0  0  0  0  0  0  0  0  0  0
    7.9904   44.8705  129.6454 N   0  0  0  0  0  0  0  0  0  0  0  0
    8.8080   43.9486  128.9602 C   0  0  0  0  0  0  0  0  0  0  0  0
    8.3301   42.7948  128.7892 O   0  0  0  0  0  0  0  0  0  0  0  0
   10.1048   44.2403  128.4631 C   0  0  0  0  0  0  0  0  0  0  0  0
   10.4656   43.3489  127.2310 C   0  0  0  0  0  0  0  0  0  0  0  0
   11.8388   43.9331  126.9465 C   0  0  0  0  0  0  0  0  0  0  0  0
   12.2455   44.6831  128.1853 C   0  0  0  0  0  0  0  0  0  0  0  0
   11.3101   44.0747  129.2011 N   0  0  0  0  0  0  0  0  0  0  0  0
   11.6490   43.5646  130.4426 C   0  0  0  0  0  0  0  0  0  0  0  0
   12.6944   44.1752  130.9649 O   0  0  0  0  0  0  0  0  0  0  0  0
   11.1275   42.5138  131.3086 C   0  0  0  0  0  0  0  0  0  0  0  0
    9.8635   42.6753  131.9372 N   0  0  0  0  0  0  0  0  0  0  0  0
    9.5066   43.3928  133.0801 C   0  0  0  0  0  0  0  0  0  0  0  0
    8.3069   43.2352  133.5308 O   0  0  0  0  0  0  0  0  0  0  0  0
    8.4169   45.4259  134.0081 H   0  0  0  0  0  0  0  0  0  0  0  0
   12.1723   46.7213  132.0831 H   0  0  0  0  0  0  0  0  0  0  0  0
    7.9838   48.3374  132.4002 H   0  0  0  0  0  0  0  0  0  0  0  0
    7.2015   44.5504  130.2927 H   0  0  0  0  0  0  0  0  0  0  0  0
    9.0649   42.1447  131.4621 H   0  0  0  0  0  0  0  0  0  0  0  0
   10.6021   43.7750  135.2455 C   0  0  0  0  0  0  0  0  0  0  0  0
   12.0904   43.6425  135.5401 C   0  0  0  0  0  0  0  0  0  0  0  0
   10.5397   45.2763  137.2880 C   0  0  0  0  0  0  0  0  0  0  0  0
    9.8386   44.3305  136.3842 C   0  0  0  0  0  0  0  0  0  0  0  0
   11.5834   48.5928  134.6590 C   0  0  0  0  0  0  0  0  0  0  0  0
   12.7768   48.4985  135.5080 C   0  0  0  0  0  0  0  0  0  0  0  0
   13.7526   47.5816  135.2795 C   0  0  0  0  0  0  0  0  0  0  0  0
   14.8855   47.4595  136.0672 C   0  0  0  0  0  0  0  0  0  0  0  0
   15.0206   48.3187  137.1363 C   0  0  0  0  0  0  0  0  0  0  0  0
   16.1384   48.2189  137.9368 O   0  0  0  0  0  0  0  0  0  0  0  0
   14.0511   49.2766  137.4147 C   0  0  0  0  0  0  0  0  0  0  0  0
   12.9451   49.3493  136.5944 C   0  0  0  0  0  0  0  0  0  0  0  0
   16.8612   47.5360  137.7654 H   0  0  0  0  0  0  0  0  0  0  0  0
    9.3924   50.1906  131.4328 C   0  0  0  0  0  0  0  0  0  0  0  0
    9.0555   50.3521  132.8813 C   0  0  0  0  0  0  0  0  0  0  0  0
    9.5226   51.3423  133.7295 C   0  0  0  0  0  0  0  0  0  0  0  0
    9.0022   51.1463  134.9437 N   0  0  0  0  0  0  0  0  0  0  0  0
    8.2142   50.0662  134.9192 C   0  0  0  0  0  0  0  0  0  0  0  0
    8.2606   49.5963  133.6500 N   0  0  0  0  0  0  0  0  0  0  0  0
    7.7257   48.7460  133.3663 H   0  0  0  0  0  0  0  0  0  0  0  0
    7.0500   46.8488  128.5912 C   0  0  0  0  0  0  0  0  0  0  0  0
    6.7206   48.2687  128.8456 C   0  0  0  0  0  0  0  0  0  0  0  0
    5.6030   48.7748  129.4624 C   0  0  0  0  0  0  0  0  0  0  0  0
    5.7175   50.1263  129.4819 N   0  0  0  0  0  0  0  0  0  0  0  0
    6.8582   50.4828  128.9035 C   0  0  0  0  0  0  0  0  0  0  0  0
    7.4752   49.3605  128.5134 N   0  0  0  0  0  0  0  0  0  0  0  0
    8.3942   49.2806  128.0268 H   0  0  0  0  0  0  0  0  0  0  0  0
   11.2286   41.0978  130.7133 C   0  0  0  0  0  0  0  0  0  0  0  0
    9.9146   40.5341  130.4041 C   0  0  0  0  0  0  0  0  0  0  0  0
    8.7388   41.1945  130.6491 C   0  0  0  0  0  0  0  0  0  0  0  0
    7.5218   40.5906  130.3132 C   0  0  0  0  0  0  0  0  0  0  0  0
    7.4958   39.3353  129.7377 C   0  0  0  0  0  0  0  0  0  0  0  0
    8.6578   38.6724  129.4911 C   0  0  0  0  0  0  0  0  0  0  0  0
    9.8479   39.2859  129.8301 C   0  0  0  0  0  0  0  0  0  0  0  0
 35 36  1  0  0  0
 36 33  1  0  0  0
 33 34  1  0  0  0
 33  1  1  0  0  0
  1  2  1  0  0  0
  2  3  1  0  0  0
  3  4  2  0  0  0
  3  5  1  0  0  0
  5 37  1  0  0  0
 37 38  1  0  0  0
 38 39  2  0  0  0
 39 40  1  0  0  0
 40 41  2  0  0  0
 41 42  1  0  0  0
 41 43  1  0  0  0
 43 44  2  0  0  0
  5  6  1  0  0  0
  6  7  1  0  0  0
  7  8  2  0  0  0
  7  9  1  0  0  0
  9 46  1  0  0  0
 46 47  1  0  0  0
 47 48  2  0  0  0
 48 49  1  0  0  0
 49 50  2  0  0  0
 50 51  1  0  0  0
  9 10  1  0  0  0
 10 11  1  0  0  0
 11 12  2  0  0  0
 11 13  1  0  0  0
 13 53  1  0  0  0
 53 54  1  0  0  0
 54 55  2  0  0  0
 55 56  1  0  0  0
 56 57  2  0  0  0
 57 58  1  0  0  0
 13 14  1  0  0  0
 14 15  1  0  0  0
 15 16  2  0  0  0
 15 17  1  0  0  0
 17 18  1  0  0  0
 18 19  1  0  0  0
 19 20  1  0  0  0
 20 21  1  0  0  0
 21 22  1  0  0  0
 22 23  2  0  0  0
 22 24  1  0  0  0
 24 60  1  0  0  0
 60 61  1  0  0  0
 61 62  2  0  0  0
 62 63  1  0  0  0
 63 64  2  0  0  0
 64 65  1  0  0  0
 65 66  2  0  0  0
 24 25  1  0  0  0
 25 26  1  0  0  0
 26 27  2  0  0  0
 26  1  1  0  0  0
 44 38  1  0  0  0
 51 47  1  0  0  0
 58 54  1  0  0  0
 21 17  1  0  0  0
 66 61  1  0  0  0
  2 28  1  0  0  0
 42 45  1  0  0  0
  6 29  1  0  0  0
 51 52  1  0  0  0
 10 30  1  0  0  0
 58 59  1  0  0  0
 14 31  1  0  0  0
 25 32  1  0  0  0
M  END
> <minimizedAffinity>
49.52357

> <CNNscore>
0.2601998150

> <CNNaffinity>
8.1197042465

> <CNN_VS>
2.1127455235

> <CNNaffinity_variance>
1.4156270027

$$$$
[H]Oc1c([H])c([H])c(C([H])([H])[C@@]2([H])C(=O)N([H])[C@@]([H])([C@@]([H])(C([H])([H])[H])C([H])([H])C([H])([H])[H])C(=O)N([H])[C@@]([H])(C([H])([H])c3c([H])c([H])c([H])c([H])c3[H])C(=O)N3C([H])([H])C([H])([H])C([H])([H])[C@@]3([H])C(=O)N([H])[C@@]([H])(C([H])([H])c3c([H])nc([H])n3[H])C(=O)N([H])[C@@]([H])(C([H])([H])c3c([H])nc([H])n3[H])C(=O)N2[H])c([H])c1[H]


 66 71  0  0  0  0  0  0  0  0999 V2000
    9.6676   45.9878  129.3597 C   0  0  0  0  0  0  0  0  0  0  0  0
   10.6167   46.9509  129.9641 N   0  0  0  0  0  0  0  0  0  0  0  0
   10.2804   48.0820  130.6985 C   0  0  0  0  0  0  0  0  0  0  0  0
   11.1127   49.0584  130.6734 O   0  0  0  0  0  0  0  0  0  0  0  0
    9.0314   48.2603  131.5153 C   0  0  0  0  0  0  0  0  0  0  0  0
    8.9063   47.3789  132.6168 N   0  0  0  0  0  0  0  0  0  0  0  0
    9.5356   47.2283  133.8428 C   0  0  0  0  0  0  0  0  0  0  0  0
    8.7182   46.9781  134.8370 O   0  0  0  0  0  0  0  0  0  0  0  0
   10.9220   47.2817  134.3026 C   0  0  0  0  0  0  0  0  0  0  0  0
   11.9587   46.9750  133.3825 N   0  0  0  0  0  0  0  0  0  0  0  0
   12.4595   45.7170  132.9948 C   0  0  0  0  0  0  0  0  0  0  0  0
   13.2300   45.6258  131.9709 O   0  0  0  0  0  0  0  0  0  0  0  0
   12.1861   44.4106  133.6708 C   0  0  0  0  0  0  0  0  0  0  0  0
   12.1455   43.3932  132.6355 N   0  0  0  0  0  0  0  0  0  0  0  0
   11.2562   42.2998  132.5996 C   0  0  0  0  0  0  0  0  0  0  0  0
   11.6162   41.3069  131.9113 O   0  0  0  0  0  0  0  0  0  0  0  0
   10.0113   42.2547  133.2793 C   0  0  0  0  0  0  0  0  0  0  0  0
    9.5947   40.7887  133.6261 C   0  0  0  0  0  0  0  0  0  0  0  0
    8.2982   41.1069  134.3512 C   0  0  0  0  0  0  0  0  0  0  0  0
    7.9369   42.5177  133.9748 C   0  0  0  0  0  0  0  0  0  0  0  0
    8.7749   42.6998  132.7332 N   0  0  0  0  0  0  0  0  0  0  0  0
    8.3501   43.1803  131.5065 C   0  0  0  0  0  0  0  0  0  0  0  0
    7.3595   44.0426  131.6239 O   0  0  0  0  0  0  0  0  0  0  0  0
    8.7348   42.9596  130.1175 C   0  0  0  0  0  0  0  0  0  0  0  0
    9.9905   43.4290  129.6465 N   0  0  0  0  0  0  0  0  0  0  0  0
   10.3877   44.7070  129.2497 C   0  0  0  0  0  0  0  0  0  0  0  0
   11.5513   44.8252  128.7026 O   0  0  0  0  0  0  0  0  0  0  0  0
   11.6562   46.7667  129.8242 H   0  0  0  0  0  0  0  0  0  0  0  0
    8.1117   46.6412  132.4524 H   0  0  0  0  0  0  0  0  0  0  0  0
   12.4348   47.8028  132.9177 H   0  0  0  0  0  0  0  0  0  0  0  0
   12.8784   43.5479  131.8719 H   0  0  0  0  0  0  0  0  0  0  0  0
   10.7427   42.6717  129.5701 H   0  0  0  0  0  0  0  0  0  0  0  0
    9.2772   46.5111  128.0058 C   0  0  0  0  0  0  0  0  0  0  0  0
    9.6682   45.5874  126.8598 C   0  0  0  0  0  0  0  0  0  0  0  0
    6.9562   46.8319  128.9752 C   0  0  0  0  0  0  0  0  0  0  0  0
    7.9106   47.0585  127.8613 C   0  0  0  0  0  0  0  0  0  0  0  0
    8.8190   49.7215  131.7477 C   0  0  0  0  0  0  0  0  0  0  0  0
    8.1786   50.4592  130.6524 C   0  0  0  0  0  0  0  0  0  0  0  0
    7.6137   51.6802  130.8401 C   0  0  0  0  0  0  0  0  0  0  0  0
    6.9928   52.3977  129.8308 C   0  0  0  0  0  0  0  0  0  0  0  0
    6.9518   51.8345  128.5735 C   0  0  0  0  0  0  0  0  0  0  0  0
    6.3398   52.5270  127.5507 O   0  0  0  0  0  0  0  0  0  0  0  0
    7.5155   50.5869  128.3268 C   0  0  0  0  0  0  0  0  0  0  0  0
    8.1194   49.9208  129.3722 C   0  0  0  0  0  0  0  0  0  0  0  0
    5.9200   53.4334  127.6932 H   0  0  0  0  0  0  0  0  0  0  0  0
   11.2544   48.5976  134.9985 C   0  0  0  0  0  0  0  0  0  0  0  0
   12.5888   48.5339  135.6717 C   0  0  0  0  0  0  0  0  0  0  0  0
   13.0230   49.3338  136.7154 C   0  0  0  0  0  0  0  0  0  0  0  0
   14.2694   48.9781  137.0374 N   0  0  0  0  0  0  0  0  0  0  0  0
   14.6639   47.9772  136.2432 C   0  0  0  0  0  0  0  0  0  0  0  0
   13.6224   47.7211  135.4165 N   0  0  0  0  0  0  0  0  0  0  0  0
   13.6777   46.9744  134.6892 H   0  0  0  0  0  0  0  0  0  0  0  0
   13.3159   44.0856  134.6505 C   0  0  0  0  0  0  0  0  0  0  0  0
   12.8184   43.4291  135.8796 C   0  0  0  0  0  0  0  0  0  0  0  0
   11.5227   43.3579  136.3290 C   0  0  0  0  0  0  0  0  0  0  0  0
   11.5263   42.6616  137.4931 N   0  0  0  0  0  0  0  0  0  0  0  0
   12.7685   42.2969  137.7876 C   0  0  0  0  0  0  0  0  0  0  0  0
   13.5613   42.7587  136.8126 N   0  0  0  0  0  0  0  0  0  0  0  0
   14.5953   42.6482  136.7328 H   0  0  0  0  0  0  0  0  0  0  0  0
    8.5038   41.5213  129.6199 C   0  0  0  0  0  0  0  0  0  0  0  0
    9.3845   41.1753  128.5043 C   0  0  0  0  0  0  0  0  0  0  0  0
    9.9088   42.1066  127.6460 C   0  0  0  0  0  0  0  0  0  0  0  0
   10.7535   41.6952  126.6089 C   0  0  0  0  0  0  0  0  0  0  0  0
   11.0629   40.3593  126.4428 C   0  0  0  0  0  0  0  0  0  0  0  0
   10.5470   39.4281  127.2897 C   0  0  0  0  0  0  0  0  0  0  0  0
    9.7154   39.8550  128.3066 C   0  0  0  0  0  0  0  0  0  0  0  0
 35 36  1  0  0  0
 36 33  1  0  0  0
 33 34  1  0  0  0
 33  1  1  0  0  0
  1  2  1  0  0  0
  2  3  1  0  0  0
  3  4  2  0  0  0
  3  5  1  0  0  0
  5 37  1  0  0  0
 37 38  1  0  0  0
 38 39  2  0  0  0
 39 40  1  0  0  0
 40 41  2  0  0  0
 41 42  1  0  0  0
 41 43  1  0  0  0
 43 44  2  0  0  0
  5  6  1  0  0  0
  6  7  1  0  0  0
  7  8  2  0  0  0
  7  9  1  0  0  0
  9 46  1  0  0  0
 46 47  1  0  0  0
 47 48  2  0  0  0
 48 49  1  0  0  0
 49 50  2  0  0  0
 50 51  1  0  0  0
  9 10  1  0  0  0
 10 11  1  0  0  0
 11 12  2  0  0  0
 11 13  1  0  0  0
 13 53  1  0  0  0
 53 54  1  0  0  0
 54 55  2  0  0  0
 55 56  1  0  0  0
 56 57  2  0  0  0
 57 58  1  0  0  0
 13 14  1  0  0  0
 14 15  1  0  0  0
 15 16  2  0  0  0
 15 17  1  0  0  0
 17 18  1  0  0  0
 18 19  1  0  0  0
 19 20  1  0  0  0
 20 21  1  0  0  0
 21 22  1  0  0  0
 22 23  2  0  0  0
 22 24  1  0  0  0
 24 60  1  0  0  0
 60 61  1  0  0  0
 61 62  2  0  0  0
 62 63  1  0  0  0
 63 64  2  0  0  0
 64 65  1  0  0  0
 65 66  2  0  0  0
 24 25  1  0  0  0
 25 26  1  0  0  0
 26 27  2  0  0  0
 26  1  1  0  0  0
 44 38  1  0  0  0
 51 47  1  0  0  0
 58 54  1  0  0  0
 21 17  1  0  0  0
 66 61  1  0  0  0
  2 28  1  0  0  0
 42 45  1  0  0  0
  6 29  1  0  0  0
 51 52  1  0  0  0
 10 30  1  0  0  0
 58 59  1  0  0  0
 14 31  1  0  0  0
 25 32  1  0  0  0
M  END
> <minimizedAffinity>
53.73652

> <CNNscore>
0.2595304847

> <CNNaffinity>
7.7157564163

> <CNN_VS>
2.0024740696

> <CNNaffinity_variance>
1.3664107323

$$$$
[H]Oc1c([H])c([H])c(C([H])([H])[C@@]2([H])C(=O)N([H])[C@@]([H])([C@@]([H])(C([H])([H])[H])C([H])([H])C([H])([H])[H])C(=O)N([H])[C@@]([H])(C([H])([H])c3c([H])c([H])c([H])c([H])c3[H])C(=O)N3C([H])([H])C([H])([H])C([H])([H])[C@@]3([H])C(=O)N([H])[C@@]([H])(C([H])([H])c3c([H])nc([H])n3[H])C(=O)N([H])[C@@]([H])(C([H])([H])c3c([H])nc([H])n3[H])C(=O)N2[H])c([H])c1[H]


 66 71  0  0  0  0  0  0  0  0999 V2000
    9.8198   46.3258  134.2967 C   0  0  0  0  0  0  0  0  0  0  0  0
    8.6964   47.2861  134.2013 N   0  0  0  0  0  0  0  0  0  0  0  0
    8.8022   48.6719  134.1776 C   0  0  0  0  0  0  0  0  0  0  0  0
    7.8057   49.3375  134.6365 O   0  0  0  0  0  0  0  0  0  0  0  0
    9.9781   49.4548  133.6644 C   0  0  0  0  0  0  0  0  0  0  0  0
   10.2372   49.3061  132.2800 N   0  0  0  0  0  0  0  0  0  0  0  0
    9.6179   49.7075  131.1064 C   0  0  0  0  0  0  0  0  0  0  0  0
   10.4441   50.1498  130.1893 O   0  0  0  0  0  0  0  0  0  0  0  0
    8.2350   49.7560  130.6359 C   0  0  0  0  0  0  0  0  0  0  0  0
    7.2939   48.8477  131.1877 N   0  0  0  0  0  0  0  0  0  0  0  0
    7.0415   47.5071  130.8373 C   0  0  0  0  0  0  0  0  0  0  0  0
    6.3247   46.7710  131.6085 O   0  0  0  0  0  0  0  0  0  0  0  0
    7.5342   46.8068  129.6105 C   0  0  0  0  0  0  0  0  0  0  0  0
    7.7848   45.4245  129.9783 N   0  0  0  0  0  0  0  0  0  0  0  0
    8.8603   44.6387  129.5160 C   0  0  0  0  0  0  0  0  0  0  0  0
    8.7046   43.3889  129.5693 O   0  0  0  0  0  0  0  0  0  0  0  0
   10.0762   45.1627  129.0053 C   0  0  0  0  0  0  0  0  0  0  0  0
   10.7466   44.1823  127.9892 C   0  0  0  0  0  0  0  0  0  0  0  0
   11.9454   45.0433  127.6296 C   0  0  0  0  0  0  0  0  0  0  0  0
   12.0504   46.0933  128.7015 C   0  0  0  0  0  0  0  0  0  0  0  0
   11.2222   45.4625  129.7938 N   0  0  0  0  0  0  0  0  0  0  0  0
   11.5800   45.3030  131.1215 C   0  0  0  0  0  0  0  0  0  0  0  0
   12.3926   46.2544  131.5374 O   0  0  0  0  0  0  0  0  0  0  0  0
   11.2747   44.3344  132.1678 C   0  0  0  0  0  0  0  0  0  0  0  0
    9.9654   44.2726  132.7165 N   0  0  0  0  0  0  0  0  0  0  0  0
    9.3497   45.0726  133.6805 C   0  0  0  0  0  0  0  0  0  0  0  0
    8.1972   44.6924  134.1213 O   0  0  0  0  0  0  0  0  0  0  0  0
    7.7118   46.8838  134.1482 H   0  0  0  0  0  0  0  0  0  0  0  0
   11.1573   48.7363  132.1028 H   0  0  0  0  0  0  0  0  0  0  0  0
    6.6848   49.2215  131.9734 H   0  0  0  0  0  0  0  0  0  0  0  0
    7.0539   45.0357  130.6555 H   0  0  0  0  0  0  0  0  0  0  0  0
    9.3669   43.4707  132.3372 H   0  0  0  0  0  0  0  0  0  0  0  0
   10.1389   46.1306  135.7525 C   0  0  0  0  0  0  0  0  0  0  0  0
    9.2603   46.9546  136.6845 C   0  0  0  0  0  0  0  0  0  0  0  0
   11.4075   43.9411  135.5898 C   0  0  0  0  0  0  0  0  0  0  0  0
   10.3288   44.7408  136.2222 C   0  0  0  0  0  0  0  0  0  0  0  0
    9.9133   50.8369  134.2300 C   0  0  0  0  0  0  0  0  0  0  0  0
   11.1928   51.5480  134.3352 C   0  0  0  0  0  0  0  0  0  0  0  0
   12.3653   50.8941  134.5418 C   0  0  0  0  0  0  0  0  0  0  0  0
   13.5877   51.5356  134.6560 C   0  0  0  0  0  0  0  0  0  0  0  0
   13.6044   52.9099  134.5528 C   0  0  0  0  0  0  0  0  0  0  0  0
   14.8075   53.5737  134.6628 O   0  0  0  0  0  0  0  0  0  0  0  0
   12.4323   53.6284  134.3408 C   0  0  0  0  0  0  0  0  0  0  0  0
   11.2459   52.9335  134.2358 C   0  0  0  0  0  0  0  0  0  0  0  0
   15.6770   53.0855  134.8173 H   0  0  0  0  0  0  0  0  0  0  0  0
    7.6508   51.1639  130.6894 C   0  0  0  0  0  0  0  0  0  0  0  0
    7.4030   51.7015  129.3155 C   0  0  0  0  0  0  0  0  0  0  0  0
    7.0734   53.0065  128.9895 C   0  0  0  0  0  0  0  0  0  0  0  0
    6.9276   53.0930  127.6648 N   0  0  0  0  0  0  0  0  0  0  0  0
    7.1493   51.8942  127.1153 C   0  0  0  0  0  0  0  0  0  0  0  0
    7.4383   51.0586  128.1410 N   0  0  0  0  0  0  0  0  0  0  0  0
    7.6503   50.0499  127.9760 H   0  0  0  0  0  0  0  0  0  0  0  0
    6.4608   46.8499  128.5206 C   0  0  0  0  0  0  0  0  0  0  0  0
    5.4567   47.9085  128.7666 C   0  0  0  0  0  0  0  0  0  0  0  0
    5.4566   49.1950  128.2862 C   0  0  0  0  0  0  0  0  0  0  0  0
    4.3469   49.8138  128.7611 N   0  0  0  0  0  0  0  0  0  0  0  0
    3.6568   48.9678  129.5168 C   0  0  0  0  0  0  0  0  0  0  0  0
    4.3233   47.8068  129.5262 N   0  0  0  0  0  0  0  0  0  0  0  0
    4.0573   46.9290  130.0225 H   0  0  0  0  0  0  0  0  0  0  0  0
   11.7771   42.9093  131.8743 C   0  0  0  0  0  0  0  0  0  0  0  0
   10.7207   42.0515  131.3374 C   0  0  0  0  0  0  0  0  0  0  0  0
   10.9684   40.9778  130.5221 C   0  0  0  0  0  0  0  0  0  0  0  0
    9.9021   40.1990  130.0588 C   0  0  0  0  0  0  0  0  0  0  0  0
    8.6029   40.5031  130.4158 C   0  0  0  0  0  0  0  0  0  0  0  0
    8.3476   41.5668  131.2244 C   0  0  0  0  0  0  0  0  0  0  0  0
    9.4141   42.3227  131.6706 C   0  0  0  0  0  0  0  0  0  0  0  0
 35 36  1  0  0  0
 36 33  1  0  0  0
 33 34  1  0  0  0
 33  1  1  0  0  0
  1  2  1  0  0  0
  2  3  1  0  0  0
  3  4  2  0  0  0
  3  5  1  0  0  0
  5 37  1  0  0  0
 37 38  1  0  0  0
 38 39  2  0  0  0
 39 40  1  0  0  0
 40 41  2  0  0  0
 41 42  1  0  0  0
 41 43  1  0  0  0
 43 44  2  0  0  0
  5  6  1  0  0  0
  6  7  1  0  0  0
  7  8  2  0  0  0
  7  9  1  0  0  0
  9 46  1  0  0  0
 46 47  1  0  0  0
 47 48  2  0  0  0
 48 49  1  0  0  0
 49 50  2  0  0  0
 50 51  1  0  0  0
  9 10  1  0  0  0
 10 11  1  0  0  0
 11 12  2  0  0  0
 11 13  1  0  0  0
 13 53  1  0  0  0
 53 54  1  0  0  0
 54 55  2  0  0  0
 55 56  1  0  0  0
 56 57  2  0  0  0
 57 58  1  0  0  0
 13 14  1  0  0  0
 14 15  1  0  0  0
 15 16  2  0  0  0
 15 17  1  0  0  0
 17 18  1  0  0  0
 18 19  1  0  0  0
 19 20  1  0  0  0
 20 21  1  0  0  0
 21 22  1  0  0  0
 22 23  2  0  0  0
 22 24  1  0  0  0
 24 60  1  0  0  0
 60 61  1  0  0  0
 61 62  2  0  0  0
 62 63  1  0  0  0
 63 64  2  0  0  0
 64 65  1  0  0  0
 65 66  2  0  0  0
 24 25  1  0  0  0
 25 26  1  0  0  0
 26 27  2  0  0  0
 26  1  1  0  0  0
 44 38  1  0  0  0
 51 47  1  0  0  0
 58 54  1  0  0  0
 21 17  1  0  0  0
 66 61  1  0  0  0
  2 28  1  0  0  0
 42 45  1  0  0  0
  6 29  1  0  0  0
 51 52  1  0  0  0
 10 30  1  0  0  0
 58 59  1  0  0  0
 14 31  1  0  0  0
 25 32  1  0  0  0
M  END
> <minimizedAffinity>
50.23326

> <CNNscore>
0.2386982888

> <CNNaffinity>
8.0391101837

> <CNN_VS>
1.9189218283

> <CNNaffinity_variance>
1.4127391577

$$$$
[H]Oc1c([H])c([H])c(C([H])([H])[C@@]2([H])C(=O)N([H])[C@@]([H])([C@@]([H])(C([H])([H])[H])C([H])([H])C([H])([H])[H])C(=O)N([H])[C@@]([H])(C([H])([H])c3c([H])c([H])c([H])c([H])c3[H])C(=O)N3C([H])([H])C([H])([H])C([H])([H])[C@@]3([H])C(=O)N([H])[C@@]([H])(C([H])([H])c3c([H])nc([H])n3[H])C(=O)N([H])[C@@]([H])(C([H])([H])c3c([H])nc([H])n3[H])C(=O)N2[H])c([H])c1[H]


 66 71  0  0  0  0  0  0  0  0999 V2000
   10.6478   44.5732  128.2657 C   0  0  0  0  0  0  0  0  0  0  0  0
   10.8872   45.9497  128.7569 N   0  0  0  0  0  0  0  0  0  0  0  0
   10.0233   47.0302  128.6217 C   0  0  0  0  0  0  0  0  0  0  0  0
   10.5557   48.1971  128.5834 O   0  0  0  0  0  0  0  0  0  0  0  0
    8.5262   46.9505  128.5158 C   0  0  0  0  0  0  0  0  0  0  0  0
    7.8722   46.4359  129.6619 N   0  0  0  0  0  0  0  0  0  0  0  0
    7.6313   46.8846  130.9513 C   0  0  0  0  0  0  0  0  0  0  0  0
    6.4191   46.6381  131.3862 O   0  0  0  0  0  0  0  0  0  0  0  0
    8.4220   47.5806  131.9644 C   0  0  0  0  0  0  0  0  0  0  0  0
    9.8343   47.4382  131.9449 N   0  0  0  0  0  0  0  0  0  0  0  0
   10.6310   46.4052  132.4759 C   0  0  0  0  0  0  0  0  0  0  0  0
   11.8706   46.3242  132.1489 O   0  0  0  0  0  0  0  0  0  0  0  0
   10.1793   45.3397  133.4241 C   0  0  0  0  0  0  0  0  0  0  0  0
   10.9189   44.1337  133.0965 N   0  0  0  0  0  0  0  0  0  0  0  0
   10.3952   42.8247  133.1135 C   0  0  0  0  0  0  0  0  0  0  0  0
   11.2307   41.8884  133.2327 O   0  0  0  0  0  0  0  0  0  0  0  0
    9.0152   42.5107  133.0090 C   0  0  0  0  0  0  0  0  0  0  0  0
    8.6752   41.1577  133.7138 C   0  0  0  0  0  0  0  0  0  0  0  0
    7.1785   41.1579  133.4536 C   0  0  0  0  0  0  0  0  0  0  0  0
    6.9383   42.1625  132.3601 C   0  0  0  0  0  0  0  0  0  0  0  0
    8.3272   42.2868  131.7836 N   0  0  0  0  0  0  0  0  0  0  0  0
    8.6835   42.2059  130.4484 C   0  0  0  0  0  0  0  0  0  0  0  0
    7.7243   42.6297  129.6491 O   0  0  0  0  0  0  0  0  0  0  0  0
    9.8639   41.7630  129.7159 C   0  0  0  0  0  0  0  0  0  0  0  0
   11.0673   42.5149  129.7894 N   0  0  0  0  0  0  0  0  0  0  0  0
   11.4481   43.6804  129.1223 C   0  0  0  0  0  0  0  0  0  0  0  0
   12.6736   44.0661  129.2511 O   0  0  0  0  0  0  0  0  0  0  0  0
   11.8072   46.1369  129.2596 H   0  0  0  0  0  0  0  0  0  0  0  0
    7.4533   45.4405  129.4719 H   0  0  0  0  0  0  0  0  0  0  0  0
   10.3787   48.2165  131.4696 H   0  0  0  0  0  0  0  0  0  0  0  0
   11.9367   44.3293  132.8322 H   0  0  0  0  0  0  0  0  0  0  0  0
   11.8016   42.1061  130.4518 H   0  0  0  0  0  0  0  0  0  0  0  0
   11.1031   44.5071  126.8347 C   0  0  0  0  0  0  0  0  0  0  0  0
   11.8628   43.2314  126.4955 C   0  0  0  0  0  0  0  0  0  0  0  0
   10.2993   46.1943  125.1210 C   0  0  0  0  0  0  0  0  0  0  0  0
   10.1208   44.8841  125.7951 C   0  0  0  0  0  0  0  0  0  0  0  0
    8.0221   48.2272  127.9240 C   0  0  0  0  0  0  0  0  0  0  0  0
    7.0920   48.9978  128.7577 C   0  0  0  0  0  0  0  0  0  0  0  0
    5.8008   48.6165  128.9374 C   0  0  0  0  0  0  0  0  0  0  0  0
    4.8952   49.3263  129.7088 C   0  0  0  0  0  0  0  0  0  0  0  0
    5.3376   50.4784  130.3224 C   0  0  0  0  0  0  0  0  0  0  0  0
    4.4571   51.2042  131.0958 O   0  0  0  0  0  0  0  0  0  0  0  0
    6.6503   50.9135  130.1718 C   0  0  0  0  0  0  0  0  0  0  0  0
    7.5050   50.1644  129.3909 C   0  0  0  0  0  0  0  0  0  0  0  0
    3.4980   50.9191  131.2267 H   0  0  0  0  0  0  0  0  0  0  0  0
    8.0776   49.0638  132.0543 C   0  0  0  0  0  0  0  0  0  0  0  0
    9.1589   49.8312  132.7470 C   0  0  0  0  0  0  0  0  0  0  0  0
   10.2209   49.2975  133.4578 C   0  0  0  0  0  0  0  0  0  0  0  0
   10.9659   50.2998  133.9312 N   0  0  0  0  0  0  0  0  0  0  0  0
   10.4298   51.4660  133.5562 C   0  0  0  0  0  0  0  0  0  0  0  0
    9.3269   51.1572  132.8336 N   0  0  0  0  0  0  0  0  0  0  0  0
    8.7208   51.9015  132.4235 H   0  0  0  0  0  0  0  0  0  0  0  0
   10.5025   45.7521  134.8619 C   0  0  0  0  0  0  0  0  0  0  0  0
    9.4985   46.6883  135.4140 C   0  0  0  0  0  0  0  0  0  0  0  0
    9.6282   47.5128  136.5046 C   0  0  0  0  0  0  0  0  0  0  0  0
    8.4651   48.1960  136.6472 N   0  0  0  0  0  0  0  0  0  0  0  0
    7.6172   47.8318  135.6926 C   0  0  0  0  0  0  0  0  0  0  0  0
    8.2362   46.9156  134.9378 N   0  0  0  0  0  0  0  0  0  0  0  0
    7.8545   46.4223  134.1019 H   0  0  0  0  0  0  0  0  0  0  0  0
   10.1822   40.2657  129.8784 C   0  0  0  0  0  0  0  0  0  0  0  0
   10.6767   39.6689  128.6378 C   0  0  0  0  0  0  0  0  0  0  0  0
   10.2608   40.0700  127.3948 C   0  0  0  0  0  0  0  0  0  0  0  0
   10.7911   39.4554  126.2549 C   0  0  0  0  0  0  0  0  0  0  0  0
   11.7293   38.4484  126.3718 C   0  0  0  0  0  0  0  0  0  0  0  0
   12.1478   38.0438  127.6013 C   0  0  0  0  0  0  0  0  0  0  0  0
   11.6118   38.6631  128.7135 C   0  0  0  0  0  0  0  0  0  0  0  0
 35 36  1  0  0  0
 36 33  1  0  0  0
 33 34  1  0  0  0
 33  1  1  0  0  0
  1  2  1  0  0  0
  2  3  1  0  0  0
  3  4  2  0  0  0
  3  5  1  0  0  0
  5 37  1  0  0  0
 37 38  1  0  0  0
 38 39  2  0  0  0
 39 40  1  0  0  0
 40 41  2  0  0  0
 41 42  1  0  0  0
 41 43  1  0  0  0
 43 44  2  0  0  0
  5  6  1  0  0  0
  6  7  1  0  0  0
  7  8  2  0  0  0
  7  9  1  0  0  0
  9 46  1  0  0  0
 46 47  1  0  0  0
 47 48  2  0  0  0
 48 49  1  0  0  0
 49 50  2  0  0  0
 50 51  1  0  0  0
  9 10  1  0  0  0
 10 11  1  0  0  0
 11 12  2  0  0  0
 11 13  1  0  0  0
 13 53  1  0  0  0
 53 54  1  0  0  0
 54 55  2  0  0  0
 55 56  1  0  0  0
 56 57  2  0  0  0
 57 58  1  0  0  0
 13 14  1  0  0  0
 14 15  1  0  0  0
 15 16  2  0  0  0
 15 17  1  0  0  0
 17 18  1  0  0  0
 18 19  1  0  0  0
 19 20  1  0  0  0
 20 21  1  0  0  0
 21 22  1  0  0  0
 22 23  2  0  0  0
 22 24  1  0  0  0
 24 60  1  0  0  0
 60 61  1  0  0  0
 61 62  2  0  0  0
 62 63  1  0  0  0
 63 64  2  0  0  0
 64 65  1  0  0  0
 65 66  2  0  0  0
 24 25  1  0  0  0
 25 26  1  0  0  0
 26 27  2  0  0  0
 26  1  1  0  0  0
 44 38  1  0  0  0
 51 47  1  0  0  0
 58 54  1  0  0  0
 21 17  1  0  0  0
 66 61  1  0  0  0
  2 28  1  0  0  0
 42 45  1  0  0  0
  6 29  1  0  0  0
 51 52  1  0  0  0
 10 30  1  0  0  0
 58 59  1  0  0  0
 14 31  1  0  0  0
 25 32  1  0  0  0
M  END
> <minimizedAffinity>
49.39405

> <CNNscore>
0.2241918892

> <CNNaffinity>
8.1398601532

> <CNN_VS>
1.8248906136

> <CNNaffinity_variance>
1.7130314112

$$$$
[H]Oc1c([H])c([H])c(C([H])([H])[C@@]2([H])C(=O)N([H])[C@@]([H])([C@@]([H])(C([H])([H])[H])C([H])([H])C([H])([H])[H])C(=O)N([H])[C@@]([H])(C([H])([H])c3c([H])c([H])c([H])c([H])c3[H])C(=O)N3C([H])([H])C([H])([H])C([H])([H])[C@@]3([H])C(=O)N([H])[C@@]([H])(C([H])([H])c3c([H])nc([H])n3[H])C(=O)N([H])[C@@]([H])(C([H])([H])c3c([H])nc([H])n3[H])C(=O)N2[H])c([H])c1[H]


 66 71  0  0  0  0  0  0  0  0999 V2000
   10.5712   44.6189  128.2234 C   0  0  0  0  0  0  0  0  0  0  0  0
   10.7874   45.9992  128.7149 N   0  0  0  0  0  0  0  0  0  0  0  0
    9.9157   47.0706  128.5598 C   0  0  0  0  0  0  0  0  0  0  0  0
   10.4371   48.2427  128.5282 O   0  0  0  0  0  0  0  0  0  0  0  0
    8.4217   46.9757  128.4252 C   0  0  0  0  0  0  0  0  0  0  0  0
    7.7508   46.4579  129.5600 N   0  0  0  0  0  0  0  0  0  0  0  0
    7.4805   46.9078  130.8432 C   0  0  0  0  0  0  0  0  0  0  0  0
    6.2627   46.6505  131.2553 O   0  0  0  0  0  0  0  0  0  0  0  0
    8.2446   47.6145  131.8693 C   0  0  0  0  0  0  0  0  0  0  0  0
    9.6584   47.4861  131.8774 N   0  0  0  0  0  0  0  0  0  0  0  0
   10.4548   46.4626  132.4268 C   0  0  0  0  0  0  0  0  0  0  0  0
   11.7013   46.3931  132.1240 O   0  0  0  0  0  0  0  0  0  0  0  0
    9.9955   45.3954  133.3693 C   0  0  0  0  0  0  0  0  0  0  0  0
   10.7531   44.1959  133.0597 N   0  0  0  0  0  0  0  0  0  0  0  0
   10.2422   42.8818  133.0706 C   0  0  0  0  0  0  0  0  0  0  0  0
   11.0844   41.9542  133.2087 O   0  0  0  0  0  0  0  0  0  0  0  0
    8.8677   42.5537  132.9404 C   0  0  0  0  0  0  0  0  0  0  0  0
    8.5275   41.1994  133.6426 C   0  0  0  0  0  0  0  0  0  0  0  0
    7.0362   41.1841  133.3536 C   0  0  0  0  0  0  0  0  0  0  0  0
    6.8072   42.1831  132.2526 C   0  0  0  0  0  0  0  0  0  0  0  0
    8.2058   42.3195  131.7027 N   0  0  0  0  0  0  0  0  0  0  0  0
    8.5886   42.2384  130.3748 C   0  0  0  0  0  0  0  0  0  0  0  0
    7.6408   42.6504  129.5559 O   0  0  0  0  0  0  0  0  0  0  0  0
    9.7872   41.8052  129.6666 C   0  0  0  0  0  0  0  0  0  0  0  0
   10.9815   42.5692  129.7610 N   0  0  0  0  0  0  0  0  0  0  0  0
   11.3635   43.7366  129.0979 C   0  0  0  0  0  0  0  0  0  0  0  0
   12.5825   44.1349  129.2492 O   0  0  0  0  0  0  0  0  0  0  0  0
   11.6956   46.1969  129.2347 H   0  0  0  0  0  0  0  0  0  0  0  0
    7.3455   45.4578  129.3650 H   0  0  0  0  0  0  0  0  0  0  0  0
   10.2042   48.2685  131.4104 H   0  0  0  0  0  0  0  0  0  0  0  0
   11.7738   44.4008  132.8146 H   0  0  0  0  0  0  0  0  0  0  0  0
   11.7069   42.1697  130.4387 H   0  0  0  0  0  0  0  0  0  0  0  0
   11.0547   44.5533  126.8016 C   0  0  0  0  0  0  0  0  0  0  0  0
   11.8053   43.2698  126.4721 C   0  0  0  0  0  0  0  0  0  0  0  0
   10.3308   46.2387  125.0509 C   0  0  0  0  0  0  0  0  0  0  0  0
   10.0985   44.9470  125.7440 C   0  0  0  0  0  0  0  0  0  0  0  0
    7.9165   48.2456  127.8200 C   0  0  0  0  0  0  0  0  0  0  0  0
    7.0081   49.0384  128.6566 C   0  0  0  0  0  0  0  0  0  0  0  0
    7.4006   50.1959  129.2492 C   0  0  0  0  0  0  0  0  0  0  0  0
    6.5718   50.9620  130.0525 C   0  0  0  0  0  0  0  0  0  0  0  0
    5.2828   50.5178  130.2545 C   0  0  0  0  0  0  0  0  0  0  0  0
    4.4368   51.2608  131.0498 O   0  0  0  0  0  0  0  0  0  0  0  0
    4.8296   49.3393  129.6707 C   0  0  0  0  0  0  0  0  0  0  0  0
    5.7017   48.6198  128.8813 C   0  0  0  0  0  0  0  0  0  0  0  0
    4.7315   52.1198  131.4897 H   0  0  0  0  0  0  0  0  0  0  0  0
    7.8839   49.0944  131.9480 C   0  0  0  0  0  0  0  0  0  0  0  0
    8.9586   49.8796  132.6309 C   0  0  0  0  0  0  0  0  0  0  0  0
    9.9046   49.3853  133.5133 C   0  0  0  0  0  0  0  0  0  0  0  0
   10.6848   50.3928  133.9131 N   0  0  0  0  0  0  0  0  0  0  0  0
   10.2831   51.5247  133.3253 C   0  0  0  0  0  0  0  0  0  0  0  0
    9.2276   51.1890  132.5461 N   0  0  0  0  0  0  0  0  0  0  0  0
    8.7246   51.9043  131.9760 H   0  0  0  0  0  0  0  0  0  0  0  0
   10.2867   45.8151  134.8119 C   0  0  0  0  0  0  0  0  0  0  0  0
   10.9089   44.7256  135.5962 C   0  0  0  0  0  0  0  0  0  0  0  0
   10.5315   44.2571  136.8307 C   0  0  0  0  0  0  0  0  0  0  0  0
   11.3783   43.2527  137.1686 N   0  0  0  0  0  0  0  0  0  0  0  0
   12.2666   43.0765  136.1977 C   0  0  0  0  0  0  0  0  0  0  0  0
   11.9896   43.9671  135.2373 N   0  0  0  0  0  0  0  0  0  0  0  0
   12.4929   44.0996  134.3336 H   0  0  0  0  0  0  0  0  0  0  0  0
   10.1171   40.3117  129.8398 C   0  0  0  0  0  0  0  0  0  0  0  0
   10.6182   39.7103  128.6039 C   0  0  0  0  0  0  0  0  0  0  0  0
   10.2195   40.1165  127.3570 C   0  0  0  0  0  0  0  0  0  0  0  0
   10.7552   39.4970  126.2222 C   0  0  0  0  0  0  0  0  0  0  0  0
   11.6815   38.4801  126.3482 C   0  0  0  0  0  0  0  0  0  0  0  0
   12.0829   38.0705  127.5817 C   0  0  0  0  0  0  0  0  0  0  0  0
   11.5419   38.6948  128.6887 C   0  0  0  0  0  0  0  0  0  0  0  0
 35 36  1  0  0  0
 36 33  1  0  0  0
 33 34  1  0  0  0
 33  1  1  0  0  0
  1  2  1  0  0  0
  2  3  1  0  0  0
  3  4  2  0  0  0
  3  5  1  0  0  0
  5 37  1  0  0  0
 37 38  1  0  0  0
 38 39  2  0  0  0
 39 40  1  0  0  0
 40 41  2  0  0  0
 41 42  1  0  0  0
 41 43  1  0  0  0
 43 44  2  0  0  0
  5  6  1  0  0  0
  6  7  1  0  0  0
  7  8  2  0  0  0
  7  9  1  0  0  0
  9 46  1  0  0  0
 46 47  1  0  0  0
 47 48  2  0  0  0
 48 49  1  0  0  0
 49 50  2  0  0  0
 50 51  1  0  0  0
  9 10  1  0  0  0
 10 11  1  0  0  0
 11 12  2  0  0  0
 11 13  1  0  0  0
 13 53  1  0  0  0
 53 54  1  0  0  0
 54 55  2  0  0  0
 55 56  1  0  0  0
 56 57  2  0  0  0
 57 58  1  0  0  0
 13 14  1  0  0  0
 14 15  1  0  0  0
 15 16  2  0  0  0
 15 17  1  0  0  0
 17 18  1  0  0  0
 18 19  1  0  0  0
 19 20  1  0  0  0
 20 21  1  0  0  0
 21 22  1  0  0  0
 22 23  2  0  0  0
 22 24  1  0  0  0
 24 60  1  0  0  0
 60 61  1  0  0  0
 61 62  2  0  0  0
 62 63  1  0  0  0
 63 64  2  0  0  0
 64 65  1  0  0  0
 65 66  2  0  0  0
 24 25  1  0  0  0
 25 26  1  0  0  0
 26 27  2  0  0  0
 26  1  1  0  0  0
 44 38  1  0  0  0
 51 47  1  0  0  0
 58 54  1  0  0  0
 21 17  1  0  0  0
 66 61  1  0  0  0
  2 28  1  0  0  0
 42 45  1  0  0  0
  6 29  1  0  0  0
 51 52  1  0  0  0
 10 30  1  0  0  0
 58 59  1  0  0  0
 14 31  1  0  0  0
 25 32  1  0  0  0
M  END
> <minimizedAffinity>
50.49140

> <CNNscore>
0.2071937025

> <CNNaffinity>
7.9685163498

> <CNN_VS>
1.6510263681

> <CNNaffinity_variance>
1.6560332775

$$$$
[H]Oc1c([H])c([H])c(C([H])([H])[C@@]2([H])C(=O)N([H])[C@@]([H])([C@@]([H])(C([H])([H])[H])C([H])([H])C([H])([H])[H])C(=O)N([H])[C@@]([H])(C([H])([H])c3c([H])c([H])c([H])c([H])c3[H])C(=O)N3C([H])([H])C([H])([H])C([H])([H])[C@@]3([H])C(=O)N([H])[C@@]([H])(C([H])([H])c3c([H])nc([H])n3[H])C(=O)N([H])[C@@]([H])(C([H])([H])c3c([H])nc([H])n3[H])C(=O)N2[H])c([H])c1[H]


 66 71  0  0  0  0  0  0  0  0999 V2000
   11.6172   46.5465  133.3435 C   0  0  0  0  0  0  0  0  0  0  0  0
   10.2325   46.7299  133.8357 N   0  0  0  0  0  0  0  0  0  0  0  0
    9.3453   47.7226  133.4364 C   0  0  0  0  0  0  0  0  0  0  0  0
    8.4581   48.0850  134.2899 O   0  0  0  0  0  0  0  0  0  0  0  0
    9.3357   48.4063  132.0980 C   0  0  0  0  0  0  0  0  0  0  0  0
    9.0506   47.5619  130.9972 N   0  0  0  0  0  0  0  0  0  0  0  0
    7.9320   46.8940  130.5233 C   0  0  0  0  0  0  0  0  0  0  0  0
    7.7790   46.9617  129.2229 O   0  0  0  0  0  0  0  0  0  0  0  0
    6.8597   46.1147  131.1391 C   0  0  0  0  0  0  0  0  0  0  0  0
    7.1147   45.4566  132.3708 N   0  0  0  0  0  0  0  0  0  0  0  0
    7.7332   44.2126  132.6025 C   0  0  0  0  0  0  0  0  0  0  0  0
    8.0961   43.8932  133.7927 O   0  0  0  0  0  0  0  0  0  0  0  0
    8.0300   43.1681  131.5733 C   0  0  0  0  0  0  0  0  0  0  0  0
    9.2705   42.5225  131.9641 N   0  0  0  0  0  0  0  0  0  0  0  0
   10.2869   42.1044  131.0808 C   0  0  0  0  0  0  0  0  0  0  0  0
   11.0625   41.2054  131.5043 O   0  0  0  0  0  0  0  0  0  0  0  0
   10.4792   42.6242  129.7744 C   0  0  0  0  0  0  0  0  0  0  0  0
   11.1594   41.5800  128.8311 C   0  0  0  0  0  0  0  0  0  0  0  0
   11.1715   42.4200  127.5653 C   0  0  0  0  0  0  0  0  0  0  0  0
   10.9445   43.8425  127.9982 C   0  0  0  0  0  0  0  0  0  0  0  0
   11.2937   43.7488  129.4632 N   0  0  0  0  0  0  0  0  0  0  0  0
   12.1471   44.5792  130.1693 C   0  0  0  0  0  0  0  0  0  0  0  0
   12.1651   45.8052  129.6845 O   0  0  0  0  0  0  0  0  0  0  0  0
   13.0307   44.4215  131.3184 C   0  0  0  0  0  0  0  0  0  0  0  0
   12.4810   44.2115  132.6118 N   0  0  0  0  0  0  0  0  0  0  0  0
   11.9369   45.1192  133.5219 C   0  0  0  0  0  0  0  0  0  0  0  0
   11.6582   44.6814  134.7042 O   0  0  0  0  0  0  0  0  0  0  0  0
    9.8776   46.0413  134.5664 H   0  0  0  0  0  0  0  0  0  0  0  0
    9.9364   47.4081  130.3694 H   0  0  0  0  0  0  0  0  0  0  0  0
    6.7944   45.9614  133.2487 H   0  0  0  0  0  0  0  0  0  0  0  0
    9.3513   42.3830  133.0214 H   0  0  0  0  0  0  0  0  0  0  0  0
   12.5078   43.1937  132.9411 H   0  0  0  0  0  0  0  0  0  0  0  0
   12.5215   47.4149  134.1726 C   0  0  0  0  0  0  0  0  0  0  0  0
   11.7744   48.3247  135.1388 C   0  0  0  0  0  0  0  0  0  0  0  0
   14.4921   47.5619  135.7616 C   0  0  0  0  0  0  0  0  0  0  0  0
   13.7009   46.7684  134.7883 C   0  0  0  0  0  0  0  0  0  0  0  0
    8.5781   49.6887  132.2238 C   0  0  0  0  0  0  0  0  0  0  0  0
    8.0923   50.2730  130.9683 C   0  0  0  0  0  0  0  0  0  0  0  0
    7.2246   51.3178  130.9485 C   0  0  0  0  0  0  0  0  0  0  0  0
    6.7391   51.8855  129.7818 C   0  0  0  0  0  0  0  0  0  0  0  0
    7.1655   51.3551  128.5833 C   0  0  0  0  0  0  0  0  0  0  0  0
    6.6979   51.9009  127.4069 O   0  0  0  0  0  0  0  0  0  0  0  0
    8.0539   50.2854  128.5469 C   0  0  0  0  0  0  0  0  0  0  0  0
    8.5018   49.7628  129.7417 C   0  0  0  0  0  0  0  0  0  0  0  0
    6.0524   52.6764  127.3952 H   0  0  0  0  0  0  0  0  0  0  0  0
    5.5619   46.9064  131.2630 C   0  0  0  0  0  0  0  0  0  0  0  0
    5.2891   47.6992  130.0242 C   0  0  0  0  0  0  0  0  0  0  0  0
    4.8583   49.0142  129.9669 C   0  0  0  0  0  0  0  0  0  0  0  0
    4.7234   49.3649  128.6853 N   0  0  0  0  0  0  0  0  0  0  0  0
    5.0495   48.3288  127.9054 C   0  0  0  0  0  0  0  0  0  0  0  0
    5.3923   47.3216  128.7433 N   0  0  0  0  0  0  0  0  0  0  0  0
    5.6882   46.3893  128.3786 H   0  0  0  0  0  0  0  0  0  0  0  0
    6.9079   42.1277  131.5497 C   0  0  0  0  0  0  0  0  0  0  0  0
    6.6778   41.5237  132.8807 C   0  0  0  0  0  0  0  0  0  0  0  0
    5.4750   41.2143  133.4668 C   0  0  0  0  0  0  0  0  0  0  0  0
    5.7344   40.6775  134.6852 N   0  0  0  0  0  0  0  0  0  0  0  0
    7.0469   40.6400  134.8826 C   0  0  0  0  0  0  0  0  0  0  0  0
    7.6290   41.1521  133.7912 N   0  0  0  0  0  0  0  0  0  0  0  0
    8.6503   41.2697  133.6154 H   0  0  0  0  0  0  0  0  0  0  0  0
   14.1950   43.4411  131.0890 C   0  0  0  0  0  0  0  0  0  0  0  0
   14.7360   43.5345  129.7330 C   0  0  0  0  0  0  0  0  0  0  0  0
   14.6475   44.6674  128.9667 C   0  0  0  0  0  0  0  0  0  0  0  0
   15.2013   44.6798  127.6815 C   0  0  0  0  0  0  0  0  0  0  0  0
   15.8356   43.5604  127.1791 C   0  0  0  0  0  0  0  0  0  0  0  0
   15.9281   42.4315  127.9325 C   0  0  0  0  0  0  0  0  0  0  0  0
   15.3748   42.4401  129.1981 C   0  0  0  0  0  0  0  0  0  0  0  0
 35 36  1  0  0  0
 36 33  1  0  0  0
 33 34  1  0  0  0
 33  1  1  0  0  0
  1  2  1  0  0  0
  2  3  1  0  0  0
  3  4  2  0  0  0
  3  5  1  0  0  0
  5 37  1  0  0  0
 37 38  1  0  0  0
 38 39  2  0  0  0
 39 40  1  0  0  0
 40 41  2  0  0  0
 41 42  1  0  0  0
 41 43  1  0  0  0
 43 44  2  0  0  0
  5  6  1  0  0  0
  6  7  1  0  0  0
  7  8  2  0  0  0
  7  9  1  0  0  0
  9 46  1  0  0  0
 46 47  1  0  0  0
 47 48  2  0  0  0
 48 49  1  0  0  0
 49 50  2  0  0  0
 50 51  1  0  0  0
  9 10  1  0  0  0
 10 11  1  0  0  0
 11 12  2  0  0  0
 11 13  1  0  0  0
 13 53  1  0  0  0
 53 54  1  0  0  0
 54 55  2  0  0  0
 55 56  1  0  0  0
 56 57  2  0  0  0
 57 58  1  0  0  0
 13 14  1  0  0  0
 14 15  1  0  0  0
 15 16  2  0  0  0
 15 17  1  0  0  0
 17 18  1  0  0  0
 18 19  1  0  0  0
 19 20  1  0  0  0
 20 21  1  0  0  0
 21 22  1  0  0  0
 22 23  2  0  0  0
 22 24  1  0  0  0
 24 60  1  0  0  0
 60 61  1  0  0  0
 61 62  2  0  0  0
 62 63  1  0  0  0
 63 64  2  0  0  0
 64 65  1  0  0  0
 65 66  2  0  0  0
 24 25  1  0  0  0
 25 26  1  0  0  0
 26 27  2  0  0  0
 26  1  1  0  0  0
 44 38  1  0  0  0
 51 47  1  0  0  0
 58 54  1  0  0  0
 21 17  1  0  0  0
 66 61  1  0  0  0
  2 28  1  0  0  0
 42 45  1  0  0  0
  6 29  1  0  0  0
 51 52  1  0  0  0
 10 30  1  0  0  0
 58 59  1  0  0  0
 14 31  1  0  0  0
 25 32  1  0  0  0
M  END
> <minimizedAffinity>
49.80999

> <CNNscore>
0.2039128840

> <CNNaffinity>
7.9308233261

> <CNN_VS>
1.6171970367

> <CNNaffinity_variance>
1.1714146137

$$$$
[H]Oc1c([H])c([H])c(C([H])([H])[C@@]2([H])C(=O)N([H])[C@@]([H])([C@@]([H])(C([H])([H])[H])C([H])([H])C([H])([H])[H])C(=O)N([H])[C@@]([H])(C([H])([H])c3c([H])c([H])c([H])c([H])c3[H])C(=O)N3C([H])([H])C([H])([H])C([H])([H])[C@@]3([H])C(=O)N([H])[C@@]([H])(C([H])([H])c3c([H])nc([H])n3[H])C(=O)N([H])[C@@]([H])(C([H])([H])c3c([H])nc([H])n3[H])C(=O)N2[H])c([H])c1[H]


 66 71  0  0  0  0  0  0  0  0999 V2000
   10.3614   48.8649  133.4931 C   0  0  0  0  0  0  0  0  0  0  0  0
    8.9844   48.8154  132.9500 N   0  0  0  0  0  0  0  0  0  0  0  0
    8.5746   49.2917  131.7102 C   0  0  0  0  0  0  0  0  0  0  0  0
    7.3543   49.6762  131.6111 O   0  0  0  0  0  0  0  0  0  0  0  0
    9.4333   49.3959  130.4810 C   0  0  0  0  0  0  0  0  0  0  0  0
    9.8985   48.1596  129.9700 N   0  0  0  0  0  0  0  0  0  0  0  0
    9.3256   47.0748  129.3245 C   0  0  0  0  0  0  0  0  0  0  0  0
   10.0376   46.6079  128.3274 O   0  0  0  0  0  0  0  0  0  0  0  0
    8.0919   46.3095  129.4933 C   0  0  0  0  0  0  0  0  0  0  0  0
    7.4907   46.2581  130.7783 N   0  0  0  0  0  0  0  0  0  0  0  0
    7.7953   45.4210  131.8693 C   0  0  0  0  0  0  0  0  0  0  0  0
    7.3104   45.6843  133.0294 O   0  0  0  0  0  0  0  0  0  0  0  0
    8.6594   44.2002  131.8319 C   0  0  0  0  0  0  0  0  0  0  0  0
    9.3537   44.1282  133.1053 N   0  0  0  0  0  0  0  0  0  0  0  0
   10.6914   43.7201  133.2839 C   0  0  0  0  0  0  0  0  0  0  0  0
   11.0017   43.3039  134.4326 O   0  0  0  0  0  0  0  0  0  0  0  0
   11.6821   43.7489  132.2683 C   0  0  0  0  0  0  0  0  0  0  0  0
   12.7869   42.6695  132.5075 C   0  0  0  0  0  0  0  0  0  0  0  0
   13.6190   42.9450  131.2668 C   0  0  0  0  0  0  0  0  0  0  0  0
   13.1961   44.2983  130.7643 C   0  0  0  0  0  0  0  0  0  0  0  0
   12.5299   44.8591  131.9966 N   0  0  0  0  0  0  0  0  0  0  0  0
   12.7537   46.0982  132.5717 C   0  0  0  0  0  0  0  0  0  0  0  0
   13.1004   47.0067  131.6812 O   0  0  0  0  0  0  0  0  0  0  0  0
   12.6993   46.6374  133.9254 C   0  0  0  0  0  0  0  0  0  0  0  0
   11.4477   46.7757  134.5836 N   0  0  0  0  0  0  0  0  0  0  0  0
   10.4662   47.7610  134.4633 C   0  0  0  0  0  0  0  0  0  0  0  0
    9.4897   47.7340  135.3076 O   0  0  0  0  0  0  0  0  0  0  0  0
    8.2320   48.3773  133.5632 H   0  0  0  0  0  0  0  0  0  0  0  0
   10.9781   48.0427  130.1232 H   0  0  0  0  0  0  0  0  0  0  0  0
    6.6944   46.9390  130.9523 H   0  0  0  0  0  0  0  0  0  0  0  0
    8.7395   44.4207  133.9306 H   0  0  0  0  0  0  0  0  0  0  0  0
   11.2386   46.0063  135.2973 H   0  0  0  0  0  0  0  0  0  0  0  0
   10.5468   50.1979  134.1626 C   0  0  0  0  0  0  0  0  0  0  0  0
   11.9847   50.4743  134.5815 C   0  0  0  0  0  0  0  0  0  0  0  0
    9.8232   52.6231  134.3185 C   0  0  0  0  0  0  0  0  0  0  0  0
    9.8979   51.3674  133.5308 C   0  0  0  0  0  0  0  0  0  0  0  0
    8.7945   50.3601  129.5342 C   0  0  0  0  0  0  0  0  0  0  0  0
    7.3369   50.2560  129.3984 C   0  0  0  0  0  0  0  0  0  0  0  0
    6.4877   50.8308  130.2892 C   0  0  0  0  0  0  0  0  0  0  0  0
    5.1084   50.7429  130.1957 C   0  0  0  0  0  0  0  0  0  0  0  0
    4.5799   50.0329  129.1393 C   0  0  0  0  0  0  0  0  0  0  0  0
    3.2102   49.9293  129.0222 O   0  0  0  0  0  0  0  0  0  0  0  0
    5.4046   49.4251  128.1983 C   0  0  0  0  0  0  0  0  0  0  0  0
    6.7701   49.5476  128.3451 C   0  0  0  0  0  0  0  0  0  0  0  0
    2.5818   50.3565  129.6861 H   0  0  0  0  0  0  0  0  0  0  0  0
    7.0284   46.6854  128.4666 C   0  0  0  0  0  0  0  0  0  0  0  0
    5.6577   46.6432  129.0643 C   0  0  0  0  0  0  0  0  0  0  0  0
    5.3331   46.8521  130.3944 C   0  0  0  0  0  0  0  0  0  0  0  0
    4.0113   46.7254  130.5374 N   0  0  0  0  0  0  0  0  0  0  0  0
    3.4624   46.4415  129.3515 C   0  0  0  0  0  0  0  0  0  0  0  0
    4.4854   46.3961  128.4655 N   0  0  0  0  0  0  0  0  0  0  0  0
    4.3203   46.1867  127.4562 H   0  0  0  0  0  0  0  0  0  0  0  0
    7.7896   42.9525  131.6628 C   0  0  0  0  0  0  0  0  0  0  0  0
    8.3726   41.9909  130.7011 C   0  0  0  0  0  0  0  0  0  0  0  0
    9.4487   42.1815  129.8695 C   0  0  0  0  0  0  0  0  0  0  0  0
    9.6342   41.0377  129.1644 N   0  0  0  0  0  0  0  0  0  0  0  0
    8.7196   40.1438  129.5212 C   0  0  0  0  0  0  0  0  0  0  0  0
    7.9480   40.7138  130.4550 N   0  0  0  0  0  0  0  0  0  0  0  0
    7.1348   40.2876  130.9497 H   0  0  0  0  0  0  0  0  0  0  0  0
   13.7235   46.0174  134.8930 C   0  0  0  0  0  0  0  0  0  0  0  0
   14.2176   46.9879  135.8696 C   0  0  0  0  0  0  0  0  0  0  0  0
   15.3572   46.7963  136.6068 C   0  0  0  0  0  0  0  0  0  0  0  0
   15.7695   47.7793  137.5135 C   0  0  0  0  0  0  0  0  0  0  0  0
   15.0378   48.9401  137.6720 C   0  0  0  0  0  0  0  0  0  0  0  0
   13.9055   49.1388  136.9448 C   0  0  0  0  0  0  0  0  0  0  0  0
   13.5160   48.1562  136.0556 C   0  0  0  0  0  0  0  0  0  0  0  0
 35 36  1  0  0  0
 36 33  1  0  0  0
 33 34  1  0  0  0
 33  1  1  0  0  0
  1  2  1  0  0  0
  2  3  1  0  0  0
  3  4  2  0  0  0
  3  5  1  0  0  0
  5 37  1  0  0  0
 37 38  1  0  0  0
 38 39  2  0  0  0
 39 40  1  0  0  0
 40 41  2  0  0  0
 41 42  1  0  0  0
 41 43  1  0  0  0
 43 44  2  0  0  0
  5  6  1  0  0  0
  6  7  1  0  0  0
  7  8  2  0  0  0
  7  9  1  0  0  0
  9 46  1  0  0  0
 46 47  1  0  0  0
 47 48  2  0  0  0
 48 49  1  0  0  0
 49 50  2  0  0  0
 50 51  1  0  0  0
  9 10  1  0  0  0
 10 11  1  0  0  0
 11 12  2  0  0  0
 11 13  1  0  0  0
 13 53  1  0  0  0
 53 54  1  0  0  0
 54 55  2  0  0  0
 55 56  1  0  0  0
 56 57  2  0  0  0
 57 58  1  0  0  0
 13 14  1  0  0  0
 14 15  1  0  0  0
 15 16  2  0  0  0
 15 17  1  0  0  0
 17 18  1  0  0  0
 18 19  1  0  0  0
 19 20  1  0  0  0
 20 21  1  0  0  0
 21 22  1  0  0  0
 22 23  2  0  0  0
 22 24  1  0  0  0
 24 60  1  0  0  0
 60 61  1  0  0  0
 61 62  2  0  0  0
 62 63  1  0  0  0
 63 64  2  0  0  0
 64 65  1  0  0  0
 65 66  2  0  0  0
 24 25  1  0  0  0
 25 26  1  0  0  0
 26 27  2  0  0  0
 26  1  1  0  0  0
 44 38  1  0  0  0
 51 47  1  0  0  0
 58 54  1  0  0  0
 21 17  1  0  0  0
 66 61  1  0  0  0
  2 28  1  0  0  0
 42 45  1  0  0  0
  6 29  1  0  0  0
 51 52  1  0  0  0
 10 30  1  0  0  0
 58 59  1  0  0  0
 14 31  1  0  0  0
 25 32  1  0  0  0
M  END
> <minimizedAffinity>
45.53237

> <CNNscore>
0.1914375424

> <CNNaffinity>
7.5756225586

> <CNN_VS>
1.4502586126

> <CNNaffinity_variance>
1.5806162357

$$$$
[H]/C(C(=O)N([H])c1c(OC([H])([H])C([H])([H])[H])c([H])c2nc([H])c(C#N)c(N([H])c3c([H])c([H])c(OC([H])([H])c4c([H])c([H])c([H])c([H])c4[H])c(Cl)c3[H])c2c1[H])=C(/[H])C([H])([H])N1C([H])([H])C([H])([H])OC([H])([H])C1([H])[H]


 45 49  0  0  0  0  0  0  0  0999 V2000
    6.7696   45.8876  130.2638 C   0  0  0  0  0  0  0  0  0  0  0  0
    5.9796   46.6550  129.4452 C   0  0  0  0  0  0  0  0  0  0  0  0
    6.1328   47.9994  129.2526 C   0  0  0  0  0  0  0  0  0  0  0  0
    5.3353   48.7383  128.4372 N   0  0  0  0  0  0  0  0  0  0  0  0
    5.5292   50.0667  128.2840 C   0  0  0  0  0  0  0  0  0  0  0  0
    6.5397   50.7411  128.9419 C   0  0  0  0  0  0  0  0  0  0  0  0
    7.3494   49.9726  129.7745 C   0  0  0  0  0  0  0  0  0  0  0  0
    7.1595   48.6110  129.9381 C   0  0  0  0  0  0  0  0  0  0  0  0
    7.9939   47.8685  130.7868 C   0  0  0  0  0  0  0  0  0  0  0  0
    7.8149   46.5204  130.9590 C   0  0  0  0  0  0  0  0  0  0  0  0
    8.5850   45.6926  131.8101 N   0  0  0  0  0  0  0  0  0  0  0  0
    8.4781   45.6906  133.2162 C   0  0  0  0  0  0  0  0  0  0  0  0
    7.6995   46.4235  133.8822 O   0  0  0  0  0  0  0  0  0  0  0  0
    9.2915   45.0177  131.3925 H   0  0  0  0  0  0  0  0  0  0  0  0
    9.3010   44.7952  134.0338 C   0  0  0  0  0  0  0  0  0  0  0  0
   10.3573   45.1554  134.7306 C   0  0  0  0  0  0  0  0  0  0  0  0
   11.1192   44.1310  135.5344 C   0  0  0  0  0  0  0  0  0  0  0  0
   11.4086   43.0272  134.6784 N   0  0  0  0  0  0  0  0  0  0  0  0
   10.3201   42.2299  134.2683 C   0  0  0  0  0  0  0  0  0  0  0  0
   10.0832   42.0806  132.8097 C   0  0  0  0  0  0  0  0  0  0  0  0
   11.0704   42.6706  132.0256 O   0  0  0  0  0  0  0  0  0  0  0  0
   12.3421   42.4267  132.5389 C   0  0  0  0  0  0  0  0  0  0  0  0
   12.5091   43.1897  133.8069 C   0  0  0  0  0  0  0  0  0  0  0  0
    6.7690   52.1515  128.7983 C   0  0  0  0  0  0  0  0  0  0  0  0
    6.9658   53.2863  128.6957 N   0  0  0  0  0  0  0  0  0  0  0  0
    8.3864   50.5860  130.4860 N   0  0  0  0  0  0  0  0  0  0  0  0
    8.3815   51.6364  130.5461 H   0  0  0  0  0  0  0  0  0  0  0  0
    9.4066   49.8114  131.1043 C   0  0  0  0  0  0  0  0  0  0  0  0
   10.4726   49.3095  130.3510 C   0  0  0  0  0  0  0  0  0  0  0  0
   11.4732   48.5510  130.9101 C   0  0  0  0  0  0  0  0  0  0  0  0
   11.4550   48.2549  132.2650 C   0  0  0  0  0  0  0  0  0  0  0  0
   10.4101   48.7437  133.0196 C   0  0  0  0  0  0  0  0  0  0  0  0
   10.3849   48.3722  134.7272 Cl  0  0  0  0  0  0  0  0  0  0  0  0
    9.4027   49.5097  132.4450 C   0  0  0  0  0  0  0  0  0  0  0  0
   12.4743   47.4855  132.8188 O   0  0  0  0  0  0  0  0  0  0  0  0
   12.3795   46.0889  132.7283 C   0  0  0  0  0  0  0  0  0  0  0  0
   12.2764   45.5635  131.3650 C   0  0  0  0  0  0  0  0  0  0  0  0
   11.1065   45.6633  130.6431 C   0  0  0  0  0  0  0  0  0  0  0  0
   10.9849   45.1747  129.3693 C   0  0  0  0  0  0  0  0  0  0  0  0
   12.0632   44.5613  128.7837 C   0  0  0  0  0  0  0  0  0  0  0  0
   13.2452   44.4471  129.4830 C   0  0  0  0  0  0  0  0  0  0  0  0
   13.3517   44.9449  130.7642 C   0  0  0  0  0  0  0  0  0  0  0  0
    6.6020   44.5384  130.4450 O   0  0  0  0  0  0  0  0  0  0  0  0
    8.5198   43.3575  129.4971 C   0  0  0  0  0  0  0  0  0  0  0  0
    7.5712   43.5658  130.6291 C   0  0  0  0  0  0  0  0  0  0  0  0
 44 45  1  0  0  0
 45 43  1  0  0  0
 43  1  1  0  0  0
  1  2  2  0  0  0
  2  3  1  0  0  0
  3  4  2  0  0  0
  4  5  1  0  0  0
  5  6  2  0  0  0
  6 24  1  0  0  0
 24 25  3  0  0  0
  6  7  1  0  0  0
  7 26  1  0  0  0
 26 28  1  0  0  0
 28 29  2  0  0  0
 29 30  1  0  0  0
 30 31  2  0  0  0
 31 35  1  0  0  0
 35 36  1  0  0  0
 36 37  1  0  0  0
 37 38  2  0  0  0
 38 39  1  0  0  0
 39 40  2  0  0  0
 40 41  1  0  0  0
 41 42  2  0  0  0
 31 32  1  0  0  0
 32 33  1  0  0  0
 32 34  2  0  0  0
  7  8  2  0  0  0
  8  9  1  0  0  0
  9 10  2  0  0  0
 10 11  1  0  0  0
 11 12  1  0  0  0
 12 13  2  0  0  0
 12 15  1  0  0  0
 15 16  2  0  0  0
 16 17  1  0  0  0
 17 18  1  0  0  0
 18 19  1  0  0  0
 19 20  1  0  0  0
 20 21  1  0  0  0
 21 22  1  0  0  0
 22 23  1  0  0  0
 10  1  1  0  0  0
 23 18  1  0  0  0
  8  3  1  0  0  0
 34 28  1  0  0  0
 42 37  1  0  0  0
 26 27  1  0  0  0
 11 14  1  0  0  0
M  END
> <minimizedAffinity>
9.30565

> <CNNscore>
0.3402493000

> <CNNaffinity>
8.0387172699

> <CNN_VS>
2.7351679802

> <CNNaffinity_variance>
0.8327430487

$$$$
[H]/C(C(=O)N([H])c1c(OC([H])([H])C([H])([H])[H])c([H])c2nc([H])c(C#N)c(N([H])c3c([H])c([H])c(OC([H])([H])c4c([H])c([H])c([H])c([H])c4[H])c(Cl)c3[H])c2c1[H])=C(/[H])C([H])([H])N1C([H])([H])C([H])([H])OC([H])([H])C1([H])[H]


 45 49  0  0  0  0  0  0  0  0999 V2000
   11.2311   47.9359  134.3341 C   0  0  0  0  0  0  0  0  0  0  0  0
   10.9976   49.0072  133.5089 C   0  0  0  0  0  0  0  0  0  0  0  0
    9.9501   49.1039  132.6362 C   0  0  0  0  0  0  0  0  0  0  0  0
    9.7415   50.1757  131.8273 N   0  0  0  0  0  0  0  0  0  0  0  0
    8.6897   50.2195  130.9801 C   0  0  0  0  0  0  0  0  0  0  0  0
    7.7767   49.1865  130.8903 C   0  0  0  0  0  0  0  0  0  0  0  0
    8.0022   48.0942  131.7242 C   0  0  0  0  0  0  0  0  0  0  0  0
    9.0764   48.0395  132.5960 C   0  0  0  0  0  0  0  0  0  0  0  0
    9.2733   46.9218  133.4205 C   0  0  0  0  0  0  0  0  0  0  0  0
   10.3340   46.8546  134.2862 C   0  0  0  0  0  0  0  0  0  0  0  0
   10.6313   45.7630  135.1364 N   0  0  0  0  0  0  0  0  0  0  0  0
   11.5499   44.7419  134.8168 C   0  0  0  0  0  0  0  0  0  0  0  0
   12.2055   44.6704  133.7435 O   0  0  0  0  0  0  0  0  0  0  0  0
   10.1522   45.6840  136.0815 H   0  0  0  0  0  0  0  0  0  0  0  0
   11.8168   43.6474  135.7538 C   0  0  0  0  0  0  0  0  0  0  0  0
   12.9724   43.4068  136.3350 C   0  0  0  0  0  0  0  0  0  0  0  0
   13.1144   42.2428  137.2843 C   0  0  0  0  0  0  0  0  0  0  0  0
   14.3797   42.3566  137.9332 N   0  0  0  0  0  0  0  0  0  0  0  0
   14.6423   41.4607  138.9901 C   0  0  0  0  0  0  0  0  0  0  0  0
   15.8411   40.5911  138.8776 C   0  0  0  0  0  0  0  0  0  0  0  0
   16.6278   40.8746  137.7649 O   0  0  0  0  0  0  0  0  0  0  0  0
   16.7601   42.2477  137.5710 C   0  0  0  0  0  0  0  0  0  0  0  0
   15.4516   42.8044  137.1286 C   0  0  0  0  0  0  0  0  0  0  0  0
    6.6505   49.2057  129.9995 C   0  0  0  0  0  0  0  0  0  0  0  0
    5.7361   49.2339  129.2923 N   0  0  0  0  0  0  0  0  0  0  0  0
    7.1287   47.0019  131.6815 N   0  0  0  0  0  0  0  0  0  0  0  0
    6.1133   47.1813  131.8904 H   0  0  0  0  0  0  0  0  0  0  0  0
    7.6030   45.6987  131.3654 C   0  0  0  0  0  0  0  0  0  0  0  0
    7.6724   45.2710  130.0357 C   0  0  0  0  0  0  0  0  0  0  0  0
    8.1177   44.0173  129.6905 C   0  0  0  0  0  0  0  0  0  0  0  0
    8.5193   43.1213  130.6700 C   0  0  0  0  0  0  0  0  0  0  0  0
    8.4564   43.5300  131.9850 C   0  0  0  0  0  0  0  0  0  0  0  0
    8.9620   42.4029  133.2213 Cl  0  0  0  0  0  0  0  0  0  0  0  0
    8.0045   44.7998  132.3242 C   0  0  0  0  0  0  0  0  0  0  0  0
    8.9679   41.8546  130.3070 O   0  0  0  0  0  0  0  0  0  0  0  0
   10.2897   41.7192  129.8571 C   0  0  0  0  0  0  0  0  0  0  0  0
   10.9901   42.9811  129.6079 C   0  0  0  0  0  0  0  0  0  0  0  0
   11.8542   43.5190  130.5374 C   0  0  0  0  0  0  0  0  0  0  0  0
   12.5158   44.7000  130.3288 C   0  0  0  0  0  0  0  0  0  0  0  0
   12.3156   45.3790  129.1537 C   0  0  0  0  0  0  0  0  0  0  0  0
   11.4563   44.8645  128.2071 C   0  0  0  0  0  0  0  0  0  0  0  0
   10.7985   43.6740  128.4318 C   0  0  0  0  0  0  0  0  0  0  0  0
   12.2877   47.8557  135.2049 O   0  0  0  0  0  0  0  0  0  0  0  0
   14.2010   48.5393  136.5627 C   0  0  0  0  0  0  0  0  0  0  0  0
   12.9008   48.8759  135.9139 C   0  0  0  0  0  0  0  0  0  0  0  0
 44 45  1  0  0  0
 45 43  1  0  0  0
 43  1  1  0  0  0
  1  2  2  0  0  0
  2  3  1  0  0  0
  3  4  2  0  0  0
  4  5  1  0  0  0
  5  6  2  0  0  0
  6 24  1  0  0  0
 24 25  3  0  0  0
  6  7  1  0  0  0
  7 26  1  0  0  0
 26 28  1  0  0  0
 28 29  2  0  0  0
 29 30  1  0  0  0
 30 31  2  0  0  0
 31 35  1  0  0  0
 35 36  1  0  0  0
 36 37  1  0  0  0
 37 38  2  0  0  0
 38 39  1  0  0  0
 39 40  2  0  0  0
 40 41  1  0  0  0
 41 42  2  0  0  0
 31 32  1  0  0  0
 32 33  1  0  0  0
 32 34  2  0  0  0
  7  8  2  0  0  0
  8  9  1  0  0  0
  9 10  2  0  0  0
 10 11  1  0  0  0
 11 12  1  0  0  0
 12 13  2  0  0  0
 12 15  1  0  0  0
 15 16  2  0  0  0
 16 17  1  0  0  0
 17 18  1  0  0  0
 18 19  1  0  0  0
 19 20  1  0  0  0
 20 21  1  0  0  0
 21 22  1  0  0  0
 22 23  1  0  0  0
 10  1  1  0  0  0
 23 18  1  0  0  0
  8  3  1  0  0  0
 34 28  1  0  0  0
 42 37  1  0  0  0
 26 27  1  0  0  0
 11 14  1  0  0  0
M  END
> <minimizedAffinity>
16.65822

> <CNNscore>
0.2908063829

> <CNNaffinity>
8.0600175858

> <CNN_VS>
2.3439044952

> <CNNaffinity_variance>
0.3038295805

$$$$
[H]/C(C(=O)N([H])c1c(OC([H])([H])C([H])([H])[H])c([H])c2nc([H])c(C#N)c(N([H])c3c([H])c([H])c(OC([H])([H])c4c([H])c([H])c([H])c([H])c4[H])c(Cl)c3[H])c2c1[H])=C(/[H])C([H])([H])N1C([H])([H])C([H])([H])OC([H])([H])C1([H])[H]


 45 49  0  0  0  0  0  0  0  0999 V2000
    9.5575   49.7701  132.1339 C   0  0  0  0  0  0  0  0  0  0  0  0
    8.7968   50.8403  131.7351 C   0  0  0  0  0  0  0  0  0  0  0  0
    7.7056   50.7577  130.9162 C   0  0  0  0  0  0  0  0  0  0  0  0
    6.9690   51.8338  130.5336 N   0  0  0  0  0  0  0  0  0  0  0  0
    5.8993   51.6966  129.7196 C   0  0  0  0  0  0  0  0  0  0  0  0
    5.4990   50.4661  129.2356 C   0  0  0  0  0  0  0  0  0  0  0  0
    6.2623   49.3718  129.6348 C   0  0  0  0  0  0  0  0  0  0  0  0
    7.3598   49.5015  130.4688 C   0  0  0  0  0  0  0  0  0  0  0  0
    8.1069   48.3768  130.8492 C   0  0  0  0  0  0  0  0  0  0  0  0
    9.1968   48.4921  131.6725 C   0  0  0  0  0  0  0  0  0  0  0  0
   10.0264   47.4242  132.0898 N   0  0  0  0  0  0  0  0  0  0  0  0
    9.6551   46.4694  133.0589 C   0  0  0  0  0  0  0  0  0  0  0  0
    8.5554   46.4539  133.6730 O   0  0  0  0  0  0  0  0  0  0  0  0
   10.9914   47.3065  131.6610 H   0  0  0  0  0  0  0  0  0  0  0  0
   10.5633   45.3818  133.4325 C   0  0  0  0  0  0  0  0  0  0  0  0
   10.7137   44.8981  134.6468 C   0  0  0  0  0  0  0  0  0  0  0  0
   11.6856   43.7718  134.8979 C   0  0  0  0  0  0  0  0  0  0  0  0
   12.5826   43.7101  133.7905 N   0  0  0  0  0  0  0  0  0  0  0  0
   12.4688   42.5963  132.9331 C   0  0  0  0  0  0  0  0  0  0  0  0
   12.2089   42.8553  131.4939 C   0  0  0  0  0  0  0  0  0  0  0  0
   12.2325   44.2069  131.1618 O   0  0  0  0  0  0  0  0  0  0  0  0
   13.2814   44.8689  131.7959 C   0  0  0  0  0  0  0  0  0  0  0  0
   12.9930   44.9517  133.2545 C   0  0  0  0  0  0  0  0  0  0  0  0
    4.3671   50.2906  128.3694 C   0  0  0  0  0  0  0  0  0  0  0  0
    3.4464   50.1608  127.6818 N   0  0  0  0  0  0  0  0  0  0  0  0
    5.9281   48.0932  129.1752 N   0  0  0  0  0  0  0  0  0  0  0  0
    4.9594   47.9514  128.7900 H   0  0  0  0  0  0  0  0  0  0  0  0
    6.8694   47.0281  129.2287 C   0  0  0  0  0  0  0  0  0  0  0  0
    6.7088   45.9834  130.1443 C   0  0  0  0  0  0  0  0  0  0  0  0
    7.6003   44.9408  130.2318 C   0  0  0  0  0  0  0  0  0  0  0  0
    8.7077   44.8932  129.3981 C   0  0  0  0  0  0  0  0  0  0  0  0
    8.8781   45.9166  128.4904 C   0  0  0  0  0  0  0  0  0  0  0  0
   10.2727   45.8589  127.4386 Cl  0  0  0  0  0  0  0  0  0  0  0  0
    7.9712   46.9667  128.4097 C   0  0  0  0  0  0  0  0  0  0  0  0
    9.6031   43.8320  129.4970 O   0  0  0  0  0  0  0  0  0  0  0  0
    9.0900   42.5455  129.7191 C   0  0  0  0  0  0  0  0  0  0  0  0
    8.5250   42.3272  131.0526 C   0  0  0  0  0  0  0  0  0  0  0  0
    7.3122   41.6951  131.2244 C   0  0  0  0  0  0  0  0  0  0  0  0
    6.7617   41.4848  132.4609 C   0  0  0  0  0  0  0  0  0  0  0  0
    7.4363   41.9171  133.5744 C   0  0  0  0  0  0  0  0  0  0  0  0
    8.6507   42.5527  133.4317 C   0  0  0  0  0  0  0  0  0  0  0  0
    9.1918   42.7561  132.1801 C   0  0  0  0  0  0  0  0  0  0  0  0
   10.6497   49.8710  132.9573 O   0  0  0  0  0  0  0  0  0  0  0  0
   11.7474   48.4661  134.6285 C   0  0  0  0  0  0  0  0  0  0  0  0
   10.7557   49.5294  134.2957 C   0  0  0  0  0  0  0  0  0  0  0  0
 44 45  1  0  0  0
 45 43  1  0  0  0
 43  1  1  0  0  0
  1  2  2  0  0  0
  2  3  1  0  0  0
  3  4  2  0  0  0
  4  5  1  0  0  0
  5  6  2  0  0  0
  6 24  1  0  0  0
 24 25  3  0  0  0
  6  7  1  0  0  0
  7 26  1  0  0  0
 26 28  1  0  0  0
 28 29  2  0  0  0
 29 30  1  0  0  0
 30 31  2  0  0  0
 31 35  1  0  0  0
 35 36  1  0  0  0
 36 37  1  0  0  0
 37 38  2  0  0  0
 38 39  1  0  0  0
 39 40  2  0  0  0
 40 41  1  0  0  0
 41 42  2  0  0  0
 31 32  1  0  0  0
 32 33  1  0  0  0
 32 34  2  0  0  0
  7  8  2  0  0  0
  8  9  1  0  0  0
  9 10  2  0  0  0
 10 11  1  0  0  0
 11 12  1  0  0  0
 12 13  2  0  0  0
 12 15  1  0  0  0
 15 16  2  0  0  0
 16 17  1  0  0  0
 17 18  1  0  0  0
 18 19  1  0  0  0
 19 20  1  0  0  0
 20 21  1  0  0  0
 21 22  1  0  0  0
 22 23  1  0  0  0
 10  1  1  0  0  0
 23 18  1  0  0  0
  8  3  1  0  0  0
 34 28  1  0  0  0
 42 37  1  0  0  0
 26 27  1  0  0  0
 11 14  1  0  0  0
M  END
> <minimizedAffinity>
13.44309

> <CNNscore>
0.2881308496

> <CNNaffinity>
7.9507241249

> <CNN_VS>
2.2908489704

> <CNNaffinity_variance>
0.5879608393

$$$$
[H]/C(C(=O)N([H])c1c(OC([H])([H])C([H])([H])[H])c([H])c2nc([H])c(C#N)c(N([H])c3c([H])c([H])c(OC([H])([H])c4c([H])c([H])c([H])c([H])c4[H])c(Cl)c3[H])c2c1[H])=C(/[H])C([H])([H])N1C([H])([H])C([H])([H])OC([H])([H])C1([H])[H]


 45 49  0  0  0  0  0  0  0  0999 V2000
   10.2129   48.1464  133.5524 C   0  0  0  0  0  0  0  0  0  0  0  0
   10.1786   49.4756  133.2135 C   0  0  0  0  0  0  0  0  0  0  0  0
    9.4121   50.0044  132.2130 C   0  0  0  0  0  0  0  0  0  0  0  0
    9.3972   51.3256  131.8950 N   0  0  0  0  0  0  0  0  0  0  0  0
    8.6214   51.7963  130.8938 C   0  0  0  0  0  0  0  0  0  0  0  0
    7.8081   50.9679  130.1448 C   0  0  0  0  0  0  0  0  0  0  0  0
    7.8329   49.6166  130.4805 C   0  0  0  0  0  0  0  0  0  0  0  0
    8.6237   49.1242  131.5047 C   0  0  0  0  0  0  0  0  0  0  0  0
    8.6247   47.7560  131.8142 C   0  0  0  0  0  0  0  0  0  0  0  0
    9.4047   47.2558  132.8242 C   0  0  0  0  0  0  0  0  0  0  0  0
    9.4940   45.8926  133.1938 N   0  0  0  0  0  0  0  0  0  0  0  0
    8.5509   45.2332  134.0090 C   0  0  0  0  0  0  0  0  0  0  0  0
    7.5289   45.7717  134.5113 O   0  0  0  0  0  0  0  0  0  0  0  0
   10.3074   45.3036  132.8469 H   0  0  0  0  0  0  0  0  0  0  0  0
    8.7022   43.8139  134.3404 C   0  0  0  0  0  0  0  0  0  0  0  0
    9.6695   43.0308  133.9134 C   0  0  0  0  0  0  0  0  0  0  0  0
    9.7105   41.5817  134.3313 C   0  0  0  0  0  0  0  0  0  0  0  0
    8.5252   40.9514  133.8487 N   0  0  0  0  0  0  0  0  0  0  0  0
    7.7493   40.2391  134.7864 C   0  0  0  0  0  0  0  0  0  0  0  0
    6.3302   40.6424  134.9583 C   0  0  0  0  0  0  0  0  0  0  0  0
    5.9197   41.6200  134.0565 O   0  0  0  0  0  0  0  0  0  0  0  0
    6.4076   41.3690  132.7761 C   0  0  0  0  0  0  0  0  0  0  0  0
    7.8804   41.5895  132.7652 C   0  0  0  0  0  0  0  0  0  0  0  0
    6.9738   51.4401  129.0755 C   0  0  0  0  0  0  0  0  0  0  0  0
    6.3070   51.8370  128.2182 N   0  0  0  0  0  0  0  0  0  0  0  0
    7.0464   48.7120  129.7587 N   0  0  0  0  0  0  0  0  0  0  0  0
    6.1200   49.0534  129.3952 H   0  0  0  0  0  0  0  0  0  0  0  0
    7.4900   47.3805  129.5274 C   0  0  0  0  0  0  0  0  0  0  0  0
    6.9191   46.3103  130.2234 C   0  0  0  0  0  0  0  0  0  0  0  0
    7.3255   45.0111  130.0334 C   0  0  0  0  0  0  0  0  0  0  0  0
    8.3339   44.7170  129.1278 C   0  0  0  0  0  0  0  0  0  0  0  0
    8.9053   45.7625  128.4345 C   0  0  0  0  0  0  0  0  0  0  0  0
   10.1762   45.3945  127.2926 Cl  0  0  0  0  0  0  0  0  0  0  0  0
    8.4877   47.0730  128.6337 C   0  0  0  0  0  0  0  0  0  0  0  0
    8.7363   43.3970  128.9450 O   0  0  0  0  0  0  0  0  0  0  0  0
    9.4582   42.7719  129.9726 C   0  0  0  0  0  0  0  0  0  0  0  0
   10.7696   43.3605  130.2531 C   0  0  0  0  0  0  0  0  0  0  0  0
   11.5009   43.9885  129.2678 C   0  0  0  0  0  0  0  0  0  0  0  0
   12.7314   44.5413  129.5052 C   0  0  0  0  0  0  0  0  0  0  0  0
   13.2628   44.4706  130.7680 C   0  0  0  0  0  0  0  0  0  0  0  0
   12.5535   43.8477  131.7721 C   0  0  0  0  0  0  0  0  0  0  0  0
   11.3156   43.2969  131.5171 C   0  0  0  0  0  0  0  0  0  0  0  0
   10.9880   47.6326  134.5605 O   0  0  0  0  0  0  0  0  0  0  0  0
   12.2519   45.5505  134.3627 C   0  0  0  0  0  0  0  0  0  0  0  0
   12.2362   47.0381  134.4715 C   0  0  0  0  0  0  0  0  0  0  0  0
 44 45  1  0  0  0
 45 43  1  0  0  0
 43  1  1  0  0  0
  1  2  2  0  0  0
  2  3  1  0  0  0
  3  4  2  0  0  0
  4  5  1  0  0  0
  5  6  2  0  0  0
  6 24  1  0  0  0
 24 25  3  0  0  0
  6  7  1  0  0  0
  7 26  1  0  0  0
 26 28  1  0  0  0
 28 29  2  0  0  0
 29 30  1  0  0  0
 30 31  2  0  0  0
 31 35  1  0  0  0
 35 36  1  0  0  0
 36 37  1  0  0  0
 37 38  2  0  0  0
 38 39  1  0  0  0
 39 40  2  0  0  0
 40 41  1  0  0  0
 41 42  2  0  0  0
 31 32  1  0  0  0
 32 33  1  0  0  0
 32 34  2  0  0  0
  7  8  2  0  0  0
  8  9  1  0  0  0
  9 10  2  0  0  0
 10 11  1  0  0  0
 11 12  1  0  0  0
 12 13  2  0  0  0
 12 15  1  0  0  0
 15 16  2  0  0  0
 16 17  1  0  0  0
 17 18  1  0  0  0
 18 19  1  0  0  0
 19 20  1  0  0  0
 20 21  1  0  0  0
 21 22  1  0  0  0
 22 23  1  0  0  0
 10  1  1  0  0  0
 23 18  1  0  0  0
  8  3  1  0  0  0
 34 28  1  0  0  0
 42 37  1  0  0  0
 26 27  1  0  0  0
 11 14  1  0  0  0
M  END
> <minimizedAffinity>
15.72730

> <CNNscore>
0.2703414261

> <CNNaffinity>
7.8286948204

> <CNN_VS>
2.1164205074

> <CNNaffinity_variance>
0.5235192776

$$$$
[H]/C(C(=O)N([H])c1c(OC([H])([H])C([H])([H])[H])c([H])c2nc([H])c(C#N)c(N([H])c3c([H])c([H])c(OC([H])([H])c4c([H])c([H])c([H])c([H])c4[H])c(Cl)c3[H])c2c1[H])=C(/[H])C([H])([H])N1C([H])([H])C([H])([H])OC([H])([H])C1([H])[H]


 45 49  0  0  0  0  0  0  0  0999 V2000
   13.3945   45.1596  131.4433 C   0  0  0  0  0  0  0  0  0  0  0  0
   14.4680   44.6732  130.7405 C   0  0  0  0  0  0  0  0  0  0  0  0
   14.4025   44.1607  129.4751 C   0  0  0  0  0  0  0  0  0  0  0  0
   15.4810   43.6827  128.8003 N   0  0  0  0  0  0  0  0  0  0  0  0
   15.3604   43.1843  127.5501 C   0  0  0  0  0  0  0  0  0  0  0  0
   14.1451   43.1334  126.8949 C   0  0  0  0  0  0  0  0  0  0  0  0
   13.0481   43.6258  127.5975 C   0  0  0  0  0  0  0  0  0  0  0  0
   13.1610   44.1390  128.8784 C   0  0  0  0  0  0  0  0  0  0  0  0
   12.0336   44.6251  129.5570 C   0  0  0  0  0  0  0  0  0  0  0  0
   12.1316   45.1336  130.8261 C   0  0  0  0  0  0  0  0  0  0  0  0
   11.0522   45.6219  131.6001 N   0  0  0  0  0  0  0  0  0  0  0  0
   10.1041   44.7971  132.2401 C   0  0  0  0  0  0  0  0  0  0  0  0
   10.0950   43.5382  132.1952 O   0  0  0  0  0  0  0  0  0  0  0  0
   10.9256   46.6690  131.7287 H   0  0  0  0  0  0  0  0  0  0  0  0
    9.0182   45.3742  133.0369 C   0  0  0  0  0  0  0  0  0  0  0  0
    8.3656   44.7550  133.9970 C   0  0  0  0  0  0  0  0  0  0  0  0
    7.2644   45.4658  134.7441 C   0  0  0  0  0  0  0  0  0  0  0  0
    7.7588   46.7421  135.1463 N   0  0  0  0  0  0  0  0  0  0  0  0
    8.8170   46.7562  136.0784 C   0  0  0  0  0  0  0  0  0  0  0  0
   10.0729   47.4463  135.6882 C   0  0  0  0  0  0  0  0  0  0  0  0
    9.9853   48.1052  134.4652 O   0  0  0  0  0  0  0  0  0  0  0  0
    8.7700   48.7729  134.3323 C   0  0  0  0  0  0  0  0  0  0  0  0
    7.6788   47.7708  134.1808 C   0  0  0  0  0  0  0  0  0  0  0  0
   13.9873   42.6093  125.5673 C   0  0  0  0  0  0  0  0  0  0  0  0
   13.8599   42.1707  124.5049 N   0  0  0  0  0  0  0  0  0  0  0  0
   11.7803   43.5960  127.0062 N   0  0  0  0  0  0  0  0  0  0  0  0
   11.7135   43.2548  126.0132 H   0  0  0  0  0  0  0  0  0  0  0  0
   10.6274   44.0122  127.7277 C   0  0  0  0  0  0  0  0  0  0  0  0
   10.1663   45.3290  127.6319 C   0  0  0  0  0  0  0  0  0  0  0  0
    9.0610   45.7713  128.3190 C   0  0  0  0  0  0  0  0  0  0  0  0
    8.3562   44.9075  129.1441 C   0  0  0  0  0  0  0  0  0  0  0  0
    8.7996   43.6064  129.2476 C   0  0  0  0  0  0  0  0  0  0  0  0
    7.9132   42.5160  130.2867 Cl  0  0  0  0  0  0  0  0  0  0  0  0
    9.9185   43.1686  128.5490 C   0  0  0  0  0  0  0  0  0  0  0  0
    7.2388   45.3681  129.8346 O   0  0  0  0  0  0  0  0  0  0  0  0
    7.4251   46.3310  130.8376 C   0  0  0  0  0  0  0  0  0  0  0  0
    7.4766   47.7157  130.3631 C   0  0  0  0  0  0  0  0  0  0  0  0
    6.5121   48.2222  129.5187 C   0  0  0  0  0  0  0  0  0  0  0  0
    6.5425   49.5117  129.0578 C   0  0  0  0  0  0  0  0  0  0  0  0
    7.5684   50.3355  129.4461 C   0  0  0  0  0  0  0  0  0  0  0  0
    8.5467   49.8549  130.2893 C   0  0  0  0  0  0  0  0  0  0  0  0
    8.5014   48.5546  130.7451 C   0  0  0  0  0  0  0  0  0  0  0  0
   13.4784   45.6713  132.7131 O   0  0  0  0  0  0  0  0  0  0  0  0
   12.5671   43.7184  133.8649 C   0  0  0  0  0  0  0  0  0  0  0  0
   13.3001   45.0163  133.9207 C   0  0  0  0  0  0  0  0  0  0  0  0
 44 45  1  0  0  0
 45 43  1  0  0  0
 43  1  1  0  0  0
  1  2  2  0  0  0
  2  3  1  0  0  0
  3  4  2  0  0  0
  4  5  1  0  0  0
  5  6  2  0  0  0
  6 24  1  0  0  0
 24 25  3  0  0  0
  6  7  1  0  0  0
  7 26  1  0  0  0
 26 28  1  0  0  0
 28 29  2  0  0  0
 29 30  1  0  0  0
 30 31  2  0  0  0
 31 35  1  0  0  0
 35 36  1  0  0  0
 36 37  1  0  0  0
 37 38  2  0  0  0
 38 39  1  0  0  0
 39 40  2  0  0  0
 40 41  1  0  0  0
 41 42  2  0  0  0
 31 32  1  0  0  0
 32 33  1  0  0  0
 32 34  2  0  0  0
  7  8  2  0  0  0
  8  9  1  0  0  0
  9 10  2  0  0  0
 10 11  1  0  0  0
 11 12  1  0  0  0
 12 13  2  0  0  0
 12 15  1  0  0  0
 15 16  2  0  0  0
 16 17  1  0  0  0
 17 18  1  0  0  0
 18 19  1  0  0  0
 19 20  1  0  0  0
 20 21  1  0  0  0
 21 22  1  0  0  0
 22 23  1  0  0  0
 10  1  1  0  0  0
 23 18  1  0  0  0
  8  3  1  0  0  0
 34 28  1  0  0  0
 42 37  1  0  0  0
 26 27  1  0  0  0
 11 14  1  0  0  0
M  END
> <minimizedAffinity>
21.30592

> <CNNscore>
0.2659403086

> <CNNaffinity>
7.9883818626

> <CNN_VS>
2.1244328022

> <CNNaffinity_variance>
0.5525630713

$$$$
[H]/C(C(=O)N([H])c1c(OC([H])([H])C([H])([H])[H])c([H])c2nc([H])c(C#N)c(N([H])c3c([H])c([H])c(OC([H])([H])c4c([H])c([H])c([H])c([H])c4[H])c(Cl)c3[H])c2c1[H])=C(/[H])C([H])([H])N1C([H])([H])C([H])([H])OC([H])([H])C1([H])[H]


 45 49  0  0  0  0  0  0  0  0999 V2000
    9.6291   49.6108  132.1807 C   0  0  0  0  0  0  0  0  0  0  0  0
    8.9563   50.7049  131.6978 C   0  0  0  0  0  0  0  0  0  0  0  0
    7.8488   50.6476  130.8988 C   0  0  0  0  0  0  0  0  0  0  0  0
    7.2008   51.7469  130.4314 N   0  0  0  0  0  0  0  0  0  0  0  0
    6.1101   51.6339  129.6418 C   0  0  0  0  0  0  0  0  0  0  0  0
    5.5983   50.4059  129.2693 C   0  0  0  0  0  0  0  0  0  0  0  0
    6.2717   49.2877  129.7546 C   0  0  0  0  0  0  0  0  0  0  0  0
    7.3897   49.3925  130.5645 C   0  0  0  0  0  0  0  0  0  0  0  0
    8.0441   48.2439  131.0338 C   0  0  0  0  0  0  0  0  0  0  0  0
    9.1531   48.3341  131.8344 C   0  0  0  0  0  0  0  0  0  0  0  0
    9.8952   47.2379  132.3349 N   0  0  0  0  0  0  0  0  0  0  0  0
   10.8942   46.5624  131.6039 C   0  0  0  0  0  0  0  0  0  0  0  0
   11.2396   46.8415  130.4251 O   0  0  0  0  0  0  0  0  0  0  0  0
    9.7140   46.8832  133.3199 H   0  0  0  0  0  0  0  0  0  0  0  0
   11.6314   45.4413  132.1928 C   0  0  0  0  0  0  0  0  0  0  0  0
   12.4994   45.5335  133.1773 C   0  0  0  0  0  0  0  0  0  0  0  0
   13.1919   44.2968  133.6942 C   0  0  0  0  0  0  0  0  0  0  0  0
   12.1880   43.3601  134.0810 N   0  0  0  0  0  0  0  0  0  0  0  0
   11.3790   43.7044  135.1836 C   0  0  0  0  0  0  0  0  0  0  0  0
    9.9097   43.7568  134.9735 C   0  0  0  0  0  0  0  0  0  0  0  0
    9.5160   43.3300  133.7085 O   0  0  0  0  0  0  0  0  0  0  0  0
   10.2224   42.1973  133.3104 C   0  0  0  0  0  0  0  0  0  0  0  0
   11.6374   42.5762  133.0421 C   0  0  0  0  0  0  0  0  0  0  0  0
    4.4416   50.2558  128.4315 C   0  0  0  0  0  0  0  0  0  0  0  0
    3.5112   50.1523  127.7527 N   0  0  0  0  0  0  0  0  0  0  0  0
    5.8221   48.0083  129.4100 N   0  0  0  0  0  0  0  0  0  0  0  0
    4.9273   47.9375  128.8612 H   0  0  0  0  0  0  0  0  0  0  0  0
    6.5539   46.8494  129.7902 C   0  0  0  0  0  0  0  0  0  0  0  0
    7.2532   46.1054  128.8346 C   0  0  0  0  0  0  0  0  0  0  0  0
    7.9654   44.9761  129.1612 C   0  0  0  0  0  0  0  0  0  0  0  0
    8.0125   44.5320  130.4743 C   0  0  0  0  0  0  0  0  0  0  0  0
    7.3279   45.2562  131.4267 C   0  0  0  0  0  0  0  0  0  0  0  0
    7.3858   44.6987  133.0821 Cl  0  0  0  0  0  0  0  0  0  0  0  0
    6.6103   46.3968  131.0866 C   0  0  0  0  0  0  0  0  0  0  0  0
    8.7372   43.3867  130.7917 O   0  0  0  0  0  0  0  0  0  0  0  0
    9.4853   42.7691  129.7785 C   0  0  0  0  0  0  0  0  0  0  0  0
   10.7245   43.4609  129.4163 C   0  0  0  0  0  0  0  0  0  0  0  0
   11.8476   43.3869  130.2119 C   0  0  0  0  0  0  0  0  0  0  0  0
   13.0153   44.0295  129.8964 C   0  0  0  0  0  0  0  0  0  0  0  0
   13.0769   44.7769  128.7478 C   0  0  0  0  0  0  0  0  0  0  0  0
   11.9685   44.8688  127.9341 C   0  0  0  0  0  0  0  0  0  0  0  0
   10.8006   44.2152  128.2652 C   0  0  0  0  0  0  0  0  0  0  0  0
   10.7393   49.6866  132.9826 O   0  0  0  0  0  0  0  0  0  0  0  0
    9.9159   48.1161  134.6640 C   0  0  0  0  0  0  0  0  0  0  0  0
   11.0078   48.9939  134.1519 C   0  0  0  0  0  0  0  0  0  0  0  0
 44 45  1  0  0  0
 45 43  1  0  0  0
 43  1  1  0  0  0
  1  2  2  0  0  0
  2  3  1  0  0  0
  3  4  2  0  0  0
  4  5  1  0  0  0
  5  6  2  0  0  0
  6 24  1  0  0  0
 24 25  3  0  0  0
  6  7  1  0  0  0
  7 26  1  0  0  0
 26 28  1  0  0  0
 28 29  2  0  0  0
 29 30  1  0  0  0
 30 31  2  0  0  0
 31 35  1  0  0  0
 35 36  1  0  0  0
 36 37  1  0  0  0
 37 38  2  0  0  0
 38 39  1  0  0  0
 39 40  2  0  0  0
 40 41  1  0  0  0
 41 42  2  0  0  0
 31 32  1  0  0  0
 32 33  1  0  0  0
 32 34  2  0  0  0
  7  8  2  0  0  0
  8  9  1  0  0  0
  9 10  2  0  0  0
 10 11  1  0  0  0
 11 12  1  0  0  0
 12 13  2  0  0  0
 12 15  1  0  0  0
 15 16  2  0  0  0
 16 17  1  0  0  0
 17 18  1  0  0  0
 18 19  1  0  0  0
 19 20  1  0  0  0
 20 21  1  0  0  0
 21 22  1  0  0  0
 22 23  1  0  0  0
 10  1  1  0  0  0
 23 18  1  0  0  0
  8  3  1  0  0  0
 34 28  1  0  0  0
 42 37  1  0  0  0
 26 27  1  0  0  0
 11 14  1  0  0  0
M  END
> <minimizedAffinity>
9.62320

> <CNNscore>
0.2643632889

> <CNNaffinity>
8.0310459137

> <CNN_VS>
2.1231136322

> <CNNaffinity_variance>
0.4248899519

$$$$
[H]/C(C(=O)N([H])c1c(OC([H])([H])C([H])([H])[H])c([H])c2nc([H])c(C#N)c(N([H])c3c([H])c([H])c(OC([H])([H])c4c([H])c([H])c([H])c([H])c4[H])c(Cl)c3[H])c2c1[H])=C(/[H])C([H])([H])N1C([H])([H])C([H])([H])OC([H])([H])C1([H])[H]


 45 49  0  0  0  0  0  0  0  0999 V2000
    7.7584   45.7114  129.1098 C   0  0  0  0  0  0  0  0  0  0  0  0
    6.7746   46.4622  128.5172 C   0  0  0  0  0  0  0  0  0  0  0  0
    6.7094   47.8270  128.5518 C   0  0  0  0  0  0  0  0  0  0  0  0
    5.7226   48.5483  127.9580 N   0  0  0  0  0  0  0  0  0  0  0  0
    5.7045   49.8978  128.0245 C   0  0  0  0  0  0  0  0  0  0  0  0
    6.6792   50.6123  128.6940 C   0  0  0  0  0  0  0  0  0  0  0  0
    7.6843   49.8613  129.2983 C   0  0  0  0  0  0  0  0  0  0  0  0
    7.7123   48.4784  129.2357 C   0  0  0  0  0  0  0  0  0  0  0  0
    8.7399   47.7542  129.8580 C   0  0  0  0  0  0  0  0  0  0  0  0
    8.7778   46.3850  129.8052 C   0  0  0  0  0  0  0  0  0  0  0  0
    9.7548   45.5668  130.4208 N   0  0  0  0  0  0  0  0  0  0  0  0
    9.4561   44.4114  131.1721 C   0  0  0  0  0  0  0  0  0  0  0  0
    8.2957   43.9742  131.3938 O   0  0  0  0  0  0  0  0  0  0  0  0
   10.7845   45.8103  130.3243 H   0  0  0  0  0  0  0  0  0  0  0  0
   10.5228   43.6047  131.7710 C   0  0  0  0  0  0  0  0  0  0  0  0
   10.5942   42.2913  131.7388 C   0  0  0  0  0  0  0  0  0  0  0  0
   11.7507   41.5799  132.3963 C   0  0  0  0  0  0  0  0  0  0  0  0
   12.7619   42.5473  132.6731 N   0  0  0  0  0  0  0  0  0  0  0  0
   13.2865   43.2601  131.5752 C   0  0  0  0  0  0  0  0  0  0  0  0
   13.1909   44.7420  131.6036 C   0  0  0  0  0  0  0  0  0  0  0  0
   12.6876   45.2412  132.8015 O   0  0  0  0  0  0  0  0  0  0  0  0
   13.2244   44.5708  133.8982 C   0  0  0  0  0  0  0  0  0  0  0  0
   12.6837   43.1837  133.9325 C   0  0  0  0  0  0  0  0  0  0  0  0
    6.6852   52.0457  128.7812 C   0  0  0  0  0  0  0  0  0  0  0  0
    6.7057   53.2002  128.8430 N   0  0  0  0  0  0  0  0  0  0  0  0
    8.7002   50.5121  130.0070 N   0  0  0  0  0  0  0  0  0  0  0  0
    9.0514   51.4275  129.6254 H   0  0  0  0  0  0  0  0  0  0  0  0
    9.2337   49.9511  131.2003 C   0  0  0  0  0  0  0  0  0  0  0  0
   10.5201   49.4028  131.2143 C   0  0  0  0  0  0  0  0  0  0  0  0
   11.0677   48.8450  132.3449 C   0  0  0  0  0  0  0  0  0  0  0  0
   10.3464   48.8087  133.5289 C   0  0  0  0  0  0  0  0  0  0  0  0
    9.0770   49.3460  133.5294 C   0  0  0  0  0  0  0  0  0  0  0  0
    8.1660   49.3016  135.0202 Cl  0  0  0  0  0  0  0  0  0  0  0  0
    8.5318   49.9077  132.3810 C   0  0  0  0  0  0  0  0  0  0  0  0
   10.9125   48.2407  134.6667 O   0  0  0  0  0  0  0  0  0  0  0  0
   11.0900   46.8495  134.6994 C   0  0  0  0  0  0  0  0  0  0  0  0
    9.8706   46.0658  134.4896 C   0  0  0  0  0  0  0  0  0  0  0  0
    8.7491   46.6223  133.9130 C   0  0  0  0  0  0  0  0  0  0  0  0
    7.5962   45.9108  133.7118 C   0  0  0  0  0  0  0  0  0  0  0  0
    7.5479   44.5949  134.0965 C   0  0  0  0  0  0  0  0  0  0  0  0
    8.6546   44.0132  134.6763 C   0  0  0  0  0  0  0  0  0  0  0  0
    9.8080   44.7428  134.8711 C   0  0  0  0  0  0  0  0  0  0  0  0
    7.8088   44.3415  129.0646 O   0  0  0  0  0  0  0  0  0  0  0  0
    9.9500   43.8439  127.9974 C   0  0  0  0  0  0  0  0  0  0  0  0
    8.5027   43.5325  128.1796 C   0  0  0  0  0  0  0  0  0  0  0  0
 44 45  1  0  0  0
 45 43  1  0  0  0
 43  1  1  0  0  0
  1  2  2  0  0  0
  2  3  1  0  0  0
  3  4  2  0  0  0
  4  5  1  0  0  0
  5  6  2  0  0  0
  6 24  1  0  0  0
 24 25  3  0  0  0
  6  7  1  0  0  0
  7 26  1  0  0  0
 26 28  1  0  0  0
 28 29  2  0  0  0
 29 30  1  0  0  0
 30 31  2  0  0  0
 31 35  1  0  0  0
 35 36  1  0  0  0
 36 37  1  0  0  0
 37 38  2  0  0  0
 38 39  1  0  0  0
 39 40  2  0  0  0
 40 41  1  0  0  0
 41 42  2  0  0  0
 31 32  1  0  0  0
 32 33  1  0  0  0
 32 34  2  0  0  0
  7  8  2  0  0  0
  8  9  1  0  0  0
  9 10  2  0  0  0
 10 11  1  0  0  0
 11 12  1  0  0  0
 12 13  2  0  0  0
 12 15  1  0  0  0
 15 16  2  0  0  0
 16 17  1  0  0  0
 17 18  1  0  0  0
 18 19  1  0  0  0
 19 20  1  0  0  0
 20 21  1  0  0  0
 21 22  1  0  0  0
 22 23  1  0  0  0
 10  1  1  0  0  0
 23 18  1  0  0  0
  8  3  1  0  0  0
 34 28  1  0  0  0
 42 37  1  0  0  0
 26 27  1  0  0  0
 11 14  1  0  0  0
M  END
> <minimizedAffinity>
11.84162

> <CNNscore>
0.2608371675

> <CNNaffinity>
7.8301324844

> <CNN_VS>
2.0423896313

> <CNNaffinity_variance>
0.5937150717

$$$$
[H]/C(C(=O)N([H])c1c(OC([H])([H])C([H])([H])[H])c([H])c2nc([H])c(C#N)c(N([H])c3c([H])c([H])c(OC([H])([H])c4c([H])c([H])c([H])c([H])c4[H])c(Cl)c3[H])c2c1[H])=C(/[H])C([H])([H])N1C([H])([H])C([H])([H])OC([H])([H])C1([H])[H]


 45 49  0  0  0  0  0  0  0  0999 V2000
    9.3257   50.1332  132.1333 C   0  0  0  0  0  0  0  0  0  0  0  0
    8.2958   50.5957  131.3533 C   0  0  0  0  0  0  0  0  0  0  0  0
    7.4291   49.8008  130.6569 C   0  0  0  0  0  0  0  0  0  0  0  0
    6.4171   50.2836  129.8889 N   0  0  0  0  0  0  0  0  0  0  0  0
    5.5890   49.4526  129.2185 C   0  0  0  0  0  0  0  0  0  0  0  0
    5.7241   48.0789  129.2760 C   0  0  0  0  0  0  0  0  0  0  0  0
    6.7649   47.5973  130.0660 C   0  0  0  0  0  0  0  0  0  0  0  0
    7.6187   48.4400  130.7572 C   0  0  0  0  0  0  0  0  0  0  0  0
    8.6580   47.9194  131.5425 C   0  0  0  0  0  0  0  0  0  0  0  0
    9.5112   48.7430  132.2299 C   0  0  0  0  0  0  0  0  0  0  0  0
   10.6015   48.3158  133.0246 N   0  0  0  0  0  0  0  0  0  0  0  0
   10.5321   47.2595  133.9563 C   0  0  0  0  0  0  0  0  0  0  0  0
    9.5006   46.5790  134.2007 O   0  0  0  0  0  0  0  0  0  0  0  0
   11.5436   48.7984  132.9320 H   0  0  0  0  0  0  0  0  0  0  0  0
   11.7076   46.8638  134.7366 C   0  0  0  0  0  0  0  0  0  0  0  0
   12.9544   46.9283  134.3215 C   0  0  0  0  0  0  0  0  0  0  0  0
   14.0776   46.4886  135.2278 C   0  0  0  0  0  0  0  0  0  0  0  0
   14.6434   47.6546  135.8239 N   0  0  0  0  0  0  0  0  0  0  0  0
   13.8567   48.8249  135.8185 C   0  0  0  0  0  0  0  0  0  0  0  0
   13.5503   49.4582  137.1266 C   0  0  0  0  0  0  0  0  0  0  0  0
   14.2018   48.8559  138.1991 O   0  0  0  0  0  0  0  0  0  0  0  0
   15.5227   48.5458  137.8836 C   0  0  0  0  0  0  0  0  0  0  0  0
   15.5378   47.4320  136.8951 C   0  0  0  0  0  0  0  0  0  0  0  0
    4.8593   47.1722  128.5743 C   0  0  0  0  0  0  0  0  0  0  0  0
    4.1635   46.4311  128.0232 N   0  0  0  0  0  0  0  0  0  0  0  0
    6.9750   46.2173  130.1639 N   0  0  0  0  0  0  0  0  0  0  0  0
    6.1489   45.6149  130.4121 H   0  0  0  0  0  0  0  0  0  0  0  0
    8.2614   45.6557  129.9339 C   0  0  0  0  0  0  0  0  0  0  0  0
    9.3910   46.1850  130.5659 C   0  0  0  0  0  0  0  0  0  0  0  0
   10.6514   45.6752  130.3637 C   0  0  0  0  0  0  0  0  0  0  0  0
   10.8441   44.5994  129.5097 C   0  0  0  0  0  0  0  0  0  0  0  0
    9.7390   44.0677  128.8802 C   0  0  0  0  0  0  0  0  0  0  0  0
    9.9791   42.7120  127.8037 Cl  0  0  0  0  0  0  0  0  0  0  0  0
    8.4685   44.5902  129.0910 C   0  0  0  0  0  0  0  0  0  0  0  0
   12.1256   44.0929  129.3134 O   0  0  0  0  0  0  0  0  0  0  0  0
   12.8144   43.5747  130.4201 C   0  0  0  0  0  0  0  0  0  0  0  0
   11.9962   43.3730  131.6181 C   0  0  0  0  0  0  0  0  0  0  0  0
   12.3467   43.9293  132.8295 C   0  0  0  0  0  0  0  0  0  0  0  0
   11.6004   43.7500  133.9640 C   0  0  0  0  0  0  0  0  0  0  0  0
   10.4607   42.9892  133.9002 C   0  0  0  0  0  0  0  0  0  0  0  0
   10.0870   42.4204  132.7018 C   0  0  0  0  0  0  0  0  0  0  0  0
   10.8487   42.6111  131.5686 C   0  0  0  0  0  0  0  0  0  0  0  0
   10.1863   50.9457  132.8265 O   0  0  0  0  0  0  0  0  0  0  0  0
    9.6140   52.8832  134.2012 C   0  0  0  0  0  0  0  0  0  0  0  0
   10.0464   51.4589  134.1057 C   0  0  0  0  0  0  0  0  0  0  0  0
 44 45  1  0  0  0
 45 43  1  0  0  0
 43  1  1  0  0  0
  1  2  2  0  0  0
  2  3  1  0  0  0
  3  4  2  0  0  0
  4  5  1  0  0  0
  5  6  2  0  0  0
  6 24  1  0  0  0
 24 25  3  0  0  0
  6  7  1  0  0  0
  7 26  1  0  0  0
 26 28  1  0  0  0
 28 29  2  0  0  0
 29 30  1  0  0  0
 30 31  2  0  0  0
 31 35  1  0  0  0
 35 36  1  0  0  0
 36 37  1  0  0  0
 37 38  2  0  0  0
 38 39  1  0  0  0
 39 40  2  0  0  0
 40 41  1  0  0  0
 41 42  2  0  0  0
 31 32  1  0  0  0
 32 33  1  0  0  0
 32 34  2  0  0  0
  7  8  2  0  0  0
  8  9  1  0  0  0
  9 10  2  0  0  0
 10 11  1  0  0  0
 11 12  1  0  0  0
 12 13  2  0  0  0
 12 15  1  0  0  0
 15 16  2  0  0  0
 16 17  1  0  0  0
 17 18  1  0  0  0
 18 19  1  0  0  0
 19 20  1  0  0  0
 20 21  1  0  0  0
 21 22  1  0  0  0
 22 23  1  0  0  0
 10  1  1  0  0  0
 23 18  1  0  0  0
  8  3  1  0  0  0
 34 28  1  0  0  0
 42 37  1  0  0  0
 26 27  1  0  0  0
 11 14  1  0  0  0
M  END
> <minimizedAffinity>
15.91377

> <CNNscore>
0.2598107159

> <CNNaffinity>
8.2823972702

> <CNN_VS>
2.1518554688

> <CNNaffinity_variance>
0.5798442960

$$$$
[H]/C(C(=O)N([H])c1c(OC([H])([H])C([H])([H])[H])c([H])c2nc([H])c(C#N)c(N([H])c3c([H])c([H])c(OC([H])([H])c4c([H])c([H])c([H])c([H])c4[H])c(Cl)c3[H])c2c1[H])=C(/[H])C([H])([H])N1C([H])([H])C([H])([H])OC([H])([H])C1([H])[H]


 45 49  0  0  0  0  0  0  0  0999 V2000
    9.9939   48.7689  132.8786 C   0  0  0  0  0  0  0  0  0  0  0  0
    9.5422   50.0637  132.8311 C   0  0  0  0  0  0  0  0  0  0  0  0
    8.8739   50.6168  131.7748 C   0  0  0  0  0  0  0  0  0  0  0  0
    8.4380   51.9038  131.7511 N   0  0  0  0  0  0  0  0  0  0  0  0
    7.7832   52.4018  130.6791 C   0  0  0  0  0  0  0  0  0  0  0  0
    7.5233   51.6371  129.5581 C   0  0  0  0  0  0  0  0  0  0  0  0
    7.9755   50.3205  129.5951 C   0  0  0  0  0  0  0  0  0  0  0  0
    8.6469   49.8004  130.6886 C   0  0  0  0  0  0  0  0  0  0  0  0
    9.0897   48.4694  130.6903 C   0  0  0  0  0  0  0  0  0  0  0  0
    9.7574   47.9432  131.7656 C   0  0  0  0  0  0  0  0  0  0  0  0
   10.2646   46.6249  131.8515 N   0  0  0  0  0  0  0  0  0  0  0  0
   11.6384   46.3062  131.8406 C   0  0  0  0  0  0  0  0  0  0  0  0
   12.5734   47.1449  131.7447 O   0  0  0  0  0  0  0  0  0  0  0  0
    9.5937   45.8053  131.9352 H   0  0  0  0  0  0  0  0  0  0  0  0
   12.0909   44.9165  131.9460 C   0  0  0  0  0  0  0  0  0  0  0  0
   12.4063   44.1391  130.9324 C   0  0  0  0  0  0  0  0  0  0  0  0
   12.8609   42.7217  131.1785 C   0  0  0  0  0  0  0  0  0  0  0  0
   12.4900   42.3659  132.5093 N   0  0  0  0  0  0  0  0  0  0  0  0
   13.0803   43.1001  133.5586 C   0  0  0  0  0  0  0  0  0  0  0  0
   12.1764   43.8024  134.5049 C   0  0  0  0  0  0  0  0  0  0  0  0
   10.8285   43.5320  134.2866 O   0  0  0  0  0  0  0  0  0  0  0  0
   10.6173   42.1821  134.0155 C   0  0  0  0  0  0  0  0  0  0  0  0
   11.1802   41.8617  132.6745 C   0  0  0  0  0  0  0  0  0  0  0  0
    6.8302   52.1397  128.4051 C   0  0  0  0  0  0  0  0  0  0  0  0
    6.2813   52.5330  127.4664 N   0  0  0  0  0  0  0  0  0  0  0  0
    7.7624   49.4867  128.4919 N   0  0  0  0  0  0  0  0  0  0  0  0
    7.4600   49.9381  127.5909 H   0  0  0  0  0  0  0  0  0  0  0  0
    7.9506   48.0803  128.5915 C   0  0  0  0  0  0  0  0  0  0  0  0
    6.9073   47.2523  129.0178 C   0  0  0  0  0  0  0  0  0  0  0  0
    7.0522   45.8904  129.1341 C   0  0  0  0  0  0  0  0  0  0  0  0
    8.2614   45.2849  128.8262 C   0  0  0  0  0  0  0  0  0  0  0  0
    9.2983   46.0893  128.4043 C   0  0  0  0  0  0  0  0  0  0  0  0
   10.8230   45.3288  128.0155 Cl  0  0  0  0  0  0  0  0  0  0  0  0
    9.1422   47.4656  128.2900 C   0  0  0  0  0  0  0  0  0  0  0  0
    8.3950   43.9048  128.9485 O   0  0  0  0  0  0  0  0  0  0  0  0
    9.2144   43.4025  129.9703 C   0  0  0  0  0  0  0  0  0  0  0  0
    8.6137   43.4138  131.3061 C   0  0  0  0  0  0  0  0  0  0  0  0
    8.1009   42.2669  131.8730 C   0  0  0  0  0  0  0  0  0  0  0  0
    7.5298   42.2544  133.1179 C   0  0  0  0  0  0  0  0  0  0  0  0
    7.4613   43.4232  133.8329 C   0  0  0  0  0  0  0  0  0  0  0  0
    7.9657   44.5850  133.2898 C   0  0  0  0  0  0  0  0  0  0  0  0
    8.5383   44.5807  132.0357 C   0  0  0  0  0  0  0  0  0  0  0  0
   10.6627   48.2296  133.9478 O   0  0  0  0  0  0  0  0  0  0  0  0
    8.8165   46.9702  134.9361 C   0  0  0  0  0  0  0  0  0  0  0  0
   10.1370   47.6468  135.0894 C   0  0  0  0  0  0  0  0  0  0  0  0
 44 45  1  0  0  0
 45 43  1  0  0  0
 43  1  1  0  0  0
  1  2  2  0  0  0
  2  3  1  0  0  0
  3  4  2  0  0  0
  4  5  1  0  0  0
  5  6  2  0  0  0
  6 24  1  0  0  0
 24 25  3  0  0  0
  6  7  1  0  0  0
  7 26  1  0  0  0
 26 28  1  0  0  0
 28 29  2  0  0  0
 29 30  1  0  0  0
 30 31  2  0  0  0
 31 35  1  0  0  0
 35 36  1  0  0  0
 36 37  1  0  0  0
 37 38  2  0  0  0
 38 39  1  0  0  0
 39 40  2  0  0  0
 40 41  1  0  0  0
 41 42  2  0  0  0
 31 32  1  0  0  0
 32 33  1  0  0  0
 32 34  2  0  0  0
  7  8  2  0  0  0
  8  9  1  0  0  0
  9 10  2  0  0  0
 10 11  1  0  0  0
 11 12  1  0  0  0
 12 13  2  0  0  0
 12 15  1  0  0  0
 15 16  2  0  0  0
 16 17  1  0  0  0
 17 18  1  0  0  0
 18 19  1  0  0  0
 19 20  1  0  0  0
 20 21  1  0  0  0
 21 22  1  0  0  0
 22 23  1  0  0  0
 10  1  1  0  0  0
 23 18  1  0  0  0
  8  3  1  0  0  0
 34 28  1  0  0  0
 42 37  1  0  0  0
 26 27  1  0  0  0
 11 14  1  0  0  0
M  END
> <minimizedAffinity>
14.23253

> <CNNscore>
0.2528795004

> <CNNaffinity>
7.8918266296

> <CNN_VS>
1.9956811666

> <CNNaffinity_variance>
0.4710009992

$$$$
[H]N=C(N([H])[H])N([H])C([H])([H])C([H])([H])C([H])([H])[C@@]([H])(C(=O)N([H])[C@]([H])(C(=O)N([H])[C@]([H])(C(=O)N([H])[C@]([H])(C(=O)N([H])[C@]([H])(C(=N[H])N([H])[H])C([H])([H])O[H])C([H])([H])C([H])([H])C([H])([H])C([H])([H])N([H])[H])C([H])([H])C([H])([H])C([H])([H])N=C(N([H])[H])N([H])[H])C([H])([H])c1c([H])c([H])c([H])c([H])c1[H])N([H])C(=O)OC([H])([H])c1c([H])c([H])c([H])c([H])c1[H]


 78 79  0  0  0  0  0  0  0  0999 V2000
    8.7558   46.3346  131.0835 C   0  0  0  0  0  0  0  0  0  0  0  0
    8.8059   45.2804  131.7623 O   0  0  0  0  0  0  0  0  0  0  0  0
    9.8519   47.2149  131.1047 N   0  0  0  0  0  0  0  0  0  0  0  0
    9.7918   48.1176  130.5396 H   0  0  0  0  0  0  0  0  0  0  0  0
   11.0675   46.9836  131.8371 C   0  0  0  0  0  0  0  0  0  0  0  0
   11.1458   45.5966  132.3884 C   0  0  0  0  0  0  0  0  0  0  0  0
   10.9429   44.6396  131.6150 O   0  0  0  0  0  0  0  0  0  0  0  0
   11.4340   45.3235  133.7440 N   0  0  0  0  0  0  0  0  0  0  0  0
   11.5894   46.1164  134.3923 H   0  0  0  0  0  0  0  0  0  0  0  0
   11.5091   43.9192  134.2421 C   0  0  0  0  0  0  0  0  0  0  0  0
   11.9387   43.1625  133.0013 C   0  0  0  0  0  0  0  0  0  0  0  0
   11.6294   41.9548  132.8146 O   0  0  0  0  0  0  0  0  0  0  0  0
   12.7089   43.7555  131.9685 N   0  0  0  0  0  0  0  0  0  0  0  0
   12.9950   44.7467  132.0764 H   0  0  0  0  0  0  0  0  0  0  0  0
   13.1045   43.0521  130.7623 C   0  0  0  0  0  0  0  0  0  0  0  0
   13.9421   43.9683  129.9164 C   0  0  0  0  0  0  0  0  0  0  0  0
   15.1257   43.4881  129.2720 N   0  0  0  0  0  0  0  0  0  0  0  0
   13.6355   45.1968  129.7480 N   0  0  0  0  0  0  0  0  0  0  0  0
   15.6716   44.0819  128.6206 H   0  0  0  0  0  0  0  0  0  0  0  0
   15.4837   42.5237  129.4380 H   0  0  0  0  0  0  0  0  0  0  0  0
   12.7927   45.6407  130.1830 H   0  0  0  0  0  0  0  0  0  0  0  0
   11.9243   42.5559  129.9856 C   0  0  0  0  0  0  0  0  0  0  0  0
   10.9763   41.9293  130.7658 O   0  0  0  0  0  0  0  0  0  0  0  0
   10.2186   41.6962  130.1567 H   0  0  0  0  0  0  0  0  0  0  0  0
   10.1632   43.5943  134.7295 C   0  0  0  0  0  0  0  0  0  0  0  0
    9.0075   43.6366  133.8105 C   0  0  0  0  0  0  0  0  0  0  0  0
    8.3589   42.2493  133.7244 C   0  0  0  0  0  0  0  0  0  0  0  0
    7.7152   42.1281  132.3492 C   0  0  0  0  0  0  0  0  0  0  0  0
    8.5942   42.7886  131.4111 N   0  0  0  0  0  0  0  0  0  0  0  0
    9.2475   42.1312  130.9517 H   0  0  0  0  0  0  0  0  0  0  0  0
    8.0597   43.4143  130.7937 H   0  0  0  0  0  0  0  0  0  0  0  0
   11.3081   47.9953  132.8966 C   0  0  0  0  0  0  0  0  0  0  0  0
   11.7412   47.4173  134.2148 C   0  0  0  0  0  0  0  0  0  0  0  0
   12.4599   48.5367  134.9744 C   0  0  0  0  0  0  0  0  0  0  0  0
   13.6868   48.0132  135.5066 N   0  0  0  0  0  0  0  0  0  0  0  0
   14.1572   48.4616  136.6026 C   0  0  0  0  0  0  0  0  0  0  0  0
   15.3634   47.9789  137.1739 N   0  0  0  0  0  0  0  0  0  0  0  0
   13.4284   49.5099  137.2687 N   0  0  0  0  0  0  0  0  0  0  0  0
   15.4379   47.8974  138.2018 H   0  0  0  0  0  0  0  0  0  0  0  0
   16.1647   47.7056  136.5844 H   0  0  0  0  0  0  0  0  0  0  0  0
   13.0570   49.3996  138.2243 H   0  0  0  0  0  0  0  0  0  0  0  0
   13.2713   50.4143  136.7676 H   0  0  0  0  0  0  0  0  0  0  0  0
    7.5692   46.6337  130.2780 C   0  0  0  0  0  0  0  0  0  0  0  0
    7.1843   48.9095  129.3388 C   0  0  0  0  0  0  0  0  0  0  0  0
    7.6412   48.3861  128.2417 O   0  0  0  0  0  0  0  0  0  0  0  0
    7.1228   47.9956  130.4107 N   0  0  0  0  0  0  0  0  0  0  0  0
    6.7482   48.3348  131.3258 H   0  0  0  0  0  0  0  0  0  0  0  0
    6.8296   50.2903  129.3394 C   0  0  0  0  0  0  0  0  0  0  0  0
    7.3259   50.9022  130.6194 N   0  0  0  0  0  0  0  0  0  0  0  0
    8.5790   50.6323  131.1764 C   0  0  0  0  0  0  0  0  0  0  0  0
    9.4133   49.8446  130.6800 O   0  0  0  0  0  0  0  0  0  0  0  0
    6.6862   51.5552  131.1037 H   0  0  0  0  0  0  0  0  0  0  0  0
    8.9616   51.2714  132.3704 O   0  0  0  0  0  0  0  0  0  0  0  0
    9.7539   50.5296  133.2777 C   0  0  0  0  0  0  0  0  0  0  0  0
    8.9691   49.5553  134.0482 C   0  0  0  0  0  0  0  0  0  0  0  0
    8.9682   48.2174  133.6862 C   0  0  0  0  0  0  0  0  0  0  0  0
    8.2211   47.2875  134.4032 C   0  0  0  0  0  0  0  0  0  0  0  0
    7.4540   47.6486  135.4963 C   0  0  0  0  0  0  0  0  0  0  0  0
    7.4632   48.9765  135.8449 C   0  0  0  0  0  0  0  0  0  0  0  0
    8.2128   49.9115  135.1264 C   0  0  0  0  0  0  0  0  0  0  0  0
    6.8599   51.2714  128.2868 C   0  0  0  0  0  0  0  0  0  0  0  0
    7.2420   52.6642  128.2937 C   0  0  0  0  0  0  0  0  0  0  0  0
    6.9359   53.5846  127.1699 C   0  0  0  0  0  0  0  0  0  0  0  0
    7.9448   54.6743  127.1250 N   0  0  0  0  0  0  0  0  0  0  0  0
    8.4349   54.8742  128.0300 H   0  0  0  0  0  0  0  0  0  0  0  0
    8.9546   56.6219  126.0618 N   0  0  0  0  0  0  0  0  0  0  0  0
    8.2363   55.4013  125.9622 C   0  0  0  0  0  0  0  0  0  0  0  0
    7.8550   54.9878  124.8214 N   0  0  0  0  0  0  0  0  0  0  0  0
    8.7578   57.3732  125.3906 H   0  0  0  0  0  0  0  0  0  0  0  0
    9.6555   56.7350  126.8066 H   0  0  0  0  0  0  0  0  0  0  0  0
    7.3312   54.1309  124.5968 H   0  0  0  0  0  0  0  0  0  0  0  0
    7.5884   46.1594  128.8680 C   0  0  0  0  0  0  0  0  0  0  0  0
    8.7543   45.3201  128.5027 C   0  0  0  0  0  0  0  0  0  0  0  0
    9.9733   45.9908  128.2973 C   0  0  0  0  0  0  0  0  0  0  0  0
   11.0764   45.2483  127.9590 C   0  0  0  0  0  0  0  0  0  0  0  0
   11.0433   43.8745  127.8114 C   0  0  0  0  0  0  0  0  0  0  0  0
    9.8379   43.2599  128.0195 C   0  0  0  0  0  0  0  0  0  0  0  0
    8.7022   43.9755  128.3616 C   0  0  0  0  0  0  0  0  0  0  0  0
 66 67  1  0  0  0
 67 68  2  0  0  0
 67 64  1  0  0  0
 64 63  1  0  0  0
 63 62  1  0  0  0
 62 61  1  0  0  0
 61 48  1  0  0  0
 48 49  1  0  0  0
 49 50  1  0  0  0
 50 51  2  0  0  0
 50 53  1  0  0  0
 53 54  1  0  0  0
 54 55  1  0  0  0
 55 56  2  0  0  0
 56 57  1  0  0  0
 57 58  2  0  0  0
 58 59  1  0  0  0
 59 60  2  0  0  0
 48 44  1  0  0  0
 44 45  2  0  0  0
 44 46  1  0  0  0
 46 43  1  0  0  0
 43 72  1  0  0  0
 72 73  1  0  0  0
 73 74  2  0  0  0
 74 75  1  0  0  0
 75 76  2  0  0  0
 76 77  1  0  0  0
 77 78  2  0  0  0
 43  1  1  0  0  0
  1  2  2  0  0  0
  1  3  1  0  0  0
  3  5  1  0  0  0
  5 32  1  0  0  0
 32 33  1  0  0  0
 33 34  1  0  0  0
 34 35  1  0  0  0
 35 36  2  0  0  0
 36 37  1  0  0  0
 36 38  1  0  0  0
  5  6  1  0  0  0
  6  7  2  0  0  0
  6  8  1  0  0  0
  8 10  1  0  0  0
 10 25  1  0  0  0
 25 26  1  0  0  0
 26 27  1  0  0  0
 27 28  1  0  0  0
 28 29  1  0  0  0
 10 11  1  0  0  0
 11 12  2  0  0  0
 11 13  1  0  0  0
 13 15  1  0  0  0
 15 22  1  0  0  0
 22 23  1  0  0  0
 15 16  1  0  0  0
 16 17  1  0  0  0
 16 18  2  0  0  0
 60 55  1  0  0  0
 78 73  1  0  0  0
 66 69  1  0  0  0
 66 70  1  0  0  0
 68 71  1  0  0  0
 64 65  1  0  0  0
 49 52  1  0  0  0
 46 47  1  0  0  0
  3  4  1  0  0  0
 37 39  1  0  0  0
 37 40  1  0  0  0
 38 41  1  0  0  0
 38 42  1  0  0  0
  8  9  1  0  0  0
 29 30  1  0  0  0
 29 31  1  0  0  0
 13 14  1  0  0  0
 23 24  1  0  0  0
 17 19  1  0  0  0
 17 20  1  0  0  0
 18 21  1  0  0  0
M  END
> <minimizedAffinity>
12.54769

> <CNNscore>
0.5350682735

> <CNNaffinity>
8.1625280380

> <CNN_VS>
4.3675098419

> <CNNaffinity_variance>
0.6886454821

$$$$
[H]N=C(N([H])[H])N([H])C([H])([H])C([H])([H])C([H])([H])[C@@]([H])(C(=O)N([H])[C@]([H])(C(=O)N([H])[C@]([H])(C(=O)N([H])[C@]([H])(C(=O)N([H])[C@]([H])(C(=N[H])N([H])[H])C([H])([H])O[H])C([H])([H])C([H])([H])C([H])([H])C([H])([H])N([H])[H])C([H])([H])C([H])([H])C([H])([H])N=C(N([H])[H])N([H])[H])C([H])([H])c1c([H])c([H])c([H])c([H])c1[H])N([H])C(=O)OC([H])([H])c1c([H])c([H])c([H])c([H])c1[H]


 78 79  0  0  0  0  0  0  0  0999 V2000
    8.4497   47.3737  130.6626 C   0  0  0  0  0  0  0  0  0  0  0  0
    8.0202   46.6952  131.6269 O   0  0  0  0  0  0  0  0  0  0  0  0
    9.7441   47.9182  130.7318 N   0  0  0  0  0  0  0  0  0  0  0  0
   10.0928   48.5095  129.9154 H   0  0  0  0  0  0  0  0  0  0  0  0
   10.6482   47.7307  131.8342 C   0  0  0  0  0  0  0  0  0  0  0  0
   10.7020   46.3088  132.2918 C   0  0  0  0  0  0  0  0  0  0  0  0
   11.0895   46.0751  133.4539 O   0  0  0  0  0  0  0  0  0  0  0  0
   10.3388   45.2215  131.4665 N   0  0  0  0  0  0  0  0  0  0  0  0
   10.0297   45.4110  130.4962 H   0  0  0  0  0  0  0  0  0  0  0  0
   10.4025   43.8205  131.9754 C   0  0  0  0  0  0  0  0  0  0  0  0
   11.3780   43.9433  133.1286 C   0  0  0  0  0  0  0  0  0  0  0  0
   12.6162   43.7599  132.9788 O   0  0  0  0  0  0  0  0  0  0  0  0
   10.9715   44.2752  134.4462 N   0  0  0  0  0  0  0  0  0  0  0  0
    9.9615   44.4305  134.6241 H   0  0  0  0  0  0  0  0  0  0  0  0
   11.8966   44.4233  135.5546 C   0  0  0  0  0  0  0  0  0  0  0  0
   13.2829   44.6175  135.0096 C   0  0  0  0  0  0  0  0  0  0  0  0
   14.2041   43.5244  134.9517 N   0  0  0  0  0  0  0  0  0  0  0  0
   13.6877   45.7533  134.5883 N   0  0  0  0  0  0  0  0  0  0  0  0
   15.1354   43.6186  134.5059 H   0  0  0  0  0  0  0  0  0  0  0  0
   13.9725   42.5941  135.3599 H   0  0  0  0  0  0  0  0  0  0  0  0
   13.0891   46.6125  134.5958 H   0  0  0  0  0  0  0  0  0  0  0  0
   11.8587   43.2483  136.4821 C   0  0  0  0  0  0  0  0  0  0  0  0
   10.9449   42.2849  136.1123 O   0  0  0  0  0  0  0  0  0  0  0  0
   11.0490   41.5327  136.7626 H   0  0  0  0  0  0  0  0  0  0  0  0
   10.8754   43.0062  130.8494 C   0  0  0  0  0  0  0  0  0  0  0  0
   12.3061   43.0026  130.4815 C   0  0  0  0  0  0  0  0  0  0  0  0
   12.7771   44.4359  130.2055 C   0  0  0  0  0  0  0  0  0  0  0  0
   13.6411   44.4017  128.9515 C   0  0  0  0  0  0  0  0  0  0  0  0
   15.0011   44.1684  129.3813 N   0  0  0  0  0  0  0  0  0  0  0  0
   15.2580   43.1668  129.3536 H   0  0  0  0  0  0  0  0  0  0  0  0
   15.6447   44.8224  128.9158 H   0  0  0  0  0  0  0  0  0  0  0  0
   10.3778   48.6486  132.9692 C   0  0  0  0  0  0  0  0  0  0  0  0
    9.0460   49.3419  132.8983 C   0  0  0  0  0  0  0  0  0  0  0  0
    8.0819   48.5397  133.7779 C   0  0  0  0  0  0  0  0  0  0  0  0
    8.8121   48.0200  134.9000 N   0  0  0  0  0  0  0  0  0  0  0  0
    8.7968   46.7720  135.1568 C   0  0  0  0  0  0  0  0  0  0  0  0
    9.5016   46.2054  136.2507 N   0  0  0  0  0  0  0  0  0  0  0  0
    8.0170   45.9180  134.2986 N   0  0  0  0  0  0  0  0  0  0  0  0
    9.9410   45.2761  136.1412 H   0  0  0  0  0  0  0  0  0  0  0  0
    9.5863   46.7033  137.1503 H   0  0  0  0  0  0  0  0  0  0  0  0
    8.4384   45.1433  133.7641 H   0  0  0  0  0  0  0  0  0  0  0  0
    6.9884   46.0877  134.2151 H   0  0  0  0  0  0  0  0  0  0  0  0
    7.6090   47.5860  129.4817 C   0  0  0  0  0  0  0  0  0  0  0  0
    5.5034   48.9093  129.3270 C   0  0  0  0  0  0  0  0  0  0  0  0
    4.9441   47.7472  129.1742 O   0  0  0  0  0  0  0  0  0  0  0  0
    6.8996   48.8380  129.5089 N   0  0  0  0  0  0  0  0  0  0  0  0
    7.4229   49.7308  129.6574 H   0  0  0  0  0  0  0  0  0  0  0  0
    4.6815   50.0732  129.2779 C   0  0  0  0  0  0  0  0  0  0  0  0
    5.5761   51.2753  129.1615 N   0  0  0  0  0  0  0  0  0  0  0  0
    6.6086   51.3896  128.2264 C   0  0  0  0  0  0  0  0  0  0  0  0
    6.9078   50.5016  127.3987 O   0  0  0  0  0  0  0  0  0  0  0  0
    5.4047   52.0510  129.8241 H   0  0  0  0  0  0  0  0  0  0  0  0
    7.3802   52.5656  128.1824 O   0  0  0  0  0  0  0  0  0  0  0  0
    7.8832   52.9643  126.9218 C   0  0  0  0  0  0  0  0  0  0  0  0
    7.5607   54.3612  126.6003 C   0  0  0  0  0  0  0  0  0  0  0  0
    8.5698   55.2522  126.2703 C   0  0  0  0  0  0  0  0  0  0  0  0
    8.2768   56.5799  125.9732 C   0  0  0  0  0  0  0  0  0  0  0  0
    6.9824   57.0676  125.9927 C   0  0  0  0  0  0  0  0  0  0  0  0
    5.9918   56.1754  126.3209 C   0  0  0  0  0  0  0  0  0  0  0  0
    6.2841   54.8421  126.6193 C   0  0  0  0  0  0  0  0  0  0  0  0
    3.4400   50.3220  128.5934 C   0  0  0  0  0  0  0  0  0  0  0  0
    2.9953   51.4487  127.8069 C   0  0  0  0  0  0  0  0  0  0  0  0
    1.7968   51.3924  126.9328 C   0  0  0  0  0  0  0  0  0  0  0  0
    2.1083   52.0030  125.6146 N   0  0  0  0  0  0  0  0  0  0  0  0
    2.1939   51.3313  124.8142 H   0  0  0  0  0  0  0  0  0  0  0  0
    1.8617   54.2817  126.4452 N   0  0  0  0  0  0  0  0  0  0  0  0
    2.2826   53.3819  125.4308 C   0  0  0  0  0  0  0  0  0  0  0  0
    2.8012   53.8373  124.3625 N   0  0  0  0  0  0  0  0  0  0  0  0
    1.5158   55.2102  126.1769 H   0  0  0  0  0  0  0  0  0  0  0  0
    1.9054   53.9872  127.4302 H   0  0  0  0  0  0  0  0  0  0  0  0
    3.1492   53.3118  123.5489 H   0  0  0  0  0  0  0  0  0  0  0  0
    8.2333   47.2960  128.1628 C   0  0  0  0  0  0  0  0  0  0  0  0
    8.9422   45.9972  128.0746 C   0  0  0  0  0  0  0  0  0  0  0  0
    8.2484   44.8680  128.5452 C   0  0  0  0  0  0  0  0  0  0  0  0
    8.8707   43.6469  128.4793 C   0  0  0  0  0  0  0  0  0  0  0  0
   10.1453   43.4774  127.9725 C   0  0  0  0  0  0  0  0  0  0  0  0
   10.7866   44.6012  127.5255 C   0  0  0  0  0  0  0  0  0  0  0  0
   10.1915   45.8511  127.5762 C   0  0  0  0  0  0  0  0  0  0  0  0
 66 67  1  0  0  0
 67 68  2  0  0  0
 67 64  1  0  0  0
 64 63  1  0  0  0
 63 62  1  0  0  0
 62 61  1  0  0  0
 61 48  1  0  0  0
 48 49  1  0  0  0
 49 50  1  0  0  0
 50 51  2  0  0  0
 50 53  1  0  0  0
 53 54  1  0  0  0
 54 55  1  0  0  0
 55 56  2  0  0  0
 56 57  1  0  0  0
 57 58  2  0  0  0
 58 59  1  0  0  0
 59 60  2  0  0  0
 48 44  1  0  0  0
 44 45  2  0  0  0
 44 46  1  0  0  0
 46 43  1  0  0  0
 43 72  1  0  0  0
 72 73  1  0  0  0
 73 74  2  0  0  0
 74 75  1  0  0  0
 75 76  2  0  0  0
 76 77  1  0  0  0
 77 78  2  0  0  0
 43  1  1  0  0  0
  1  2  2  0  0  0
  1  3  1  0  0  0
  3  5  1  0  0  0
  5 32  1  0  0  0
 32 33  1  0  0  0
 33 34  1  0  0  0
 34 35  1  0  0  0
 35 36  2  0  0  0
 36 37  1  0  0  0
 36 38  1  0  0  0
  5  6  1  0  0  0
  6  7  2  0  0  0
  6  8  1  0  0  0
  8 10  1  0  0  0
 10 25  1  0  0  0
 25 26  1  0  0  0
 26 27  1  0  0  0
 27 28  1  0  0  0
 28 29  1  0  0  0
 10 11  1  0  0  0
 11 12  2  0  0  0
 11 13  1  0  0  0
 13 15  1  0  0  0
 15 22  1  0  0  0
 22 23  1  0  0  0
 15 16  1  0  0  0
 16 17  1  0  0  0
 16 18  2  0  0  0
 60 55  1  0  0  0
 78 73  1  0  0  0
 66 69  1  0  0  0
 66 70  1  0  0  0
 68 71  1  0  0  0
 64 65  1  0  0  0
 49 52  1  0  0  0
 46 47  1  0  0  0
  3  4  1  0  0  0
 37 39  1  0  0  0
 37 40  1  0  0  0
 38 41  1  0  0  0
 38 42  1  0  0  0
  8  9  1  0  0  0
 29 30  1  0  0  0
 29 31  1  0  0  0
 13 14  1  0  0  0
 23 24  1  0  0  0
 17 19  1  0  0  0
 17 20  1  0  0  0
 18 21  1  0  0  0
M  END
> <minimizedAffinity>
11.93043

> <CNNscore>
0.4569643438

> <CNNaffinity>
8.2097253799

> <CNN_VS>
3.7515518665

> <CNNaffinity_variance>
0.5755019188

$$$$
[H]N=C(N([H])[H])N([H])C([H])([H])C([H])([H])C([H])([H])[C@@]([H])(C(=O)N([H])[C@]([H])(C(=O)N([H])[C@]([H])(C(=O)N([H])[C@]([H])(C(=O)N([H])[C@]([H])(C(=N[H])N([H])[H])C([H])([H])O[H])C([H])([H])C([H])([H])C([H])([H])C([H])([H])N([H])[H])C([H])([H])C([H])([H])C([H])([H])N=C(N([H])[H])N([H])[H])C([H])([H])c1c([H])c([H])c([H])c([H])c1[H])N([H])C(=O)OC([H])([H])c1c([H])c([H])c([H])c([H])c1[H]


 78 79  0  0  0  0  0  0  0  0999 V2000
    8.1744   49.0552  128.6186 C   0  0  0  0  0  0  0  0  0  0  0  0
    7.5345   48.4747  127.7085 O   0  0  0  0  0  0  0  0  0  0  0  0
    7.8593   50.3888  128.9331 N   0  0  0  0  0  0  0  0  0  0  0  0
    8.4218   50.8796  129.6949 H   0  0  0  0  0  0  0  0  0  0  0  0
    6.8168   51.1500  128.2993 C   0  0  0  0  0  0  0  0  0  0  0  0
    7.1974   52.5814  128.0990 C   0  0  0  0  0  0  0  0  0  0  0  0
    7.3538   53.2991  129.1068 O   0  0  0  0  0  0  0  0  0  0  0  0
    7.3823   53.1561  126.8220 N   0  0  0  0  0  0  0  0  0  0  0  0
    7.2396   52.5664  125.9824 H   0  0  0  0  0  0  0  0  0  0  0  0
    7.7708   54.5893  126.6772 C   0  0  0  0  0  0  0  0  0  0  0  0
    6.4293   55.2656  126.4783 C   0  0  0  0  0  0  0  0  0  0  0  0
    6.1423   56.3582  127.0377 O   0  0  0  0  0  0  0  0  0  0  0  0
    5.4116   54.7245  125.6518 N   0  0  0  0  0  0  0  0  0  0  0  0
    5.5954   53.8230  125.1729 H   0  0  0  0  0  0  0  0  0  0  0  0
    4.1328   55.3739  125.4298 C   0  0  0  0  0  0  0  0  0  0  0  0
    3.1112   54.3307  125.0769 C   0  0  0  0  0  0  0  0  0  0  0  0
    2.2369   53.7980  126.0762 N   0  0  0  0  0  0  0  0  0  0  0  0
    2.9908   53.8817  123.8873 N   0  0  0  0  0  0  0  0  0  0  0  0
    1.4734   53.1384  125.8377 H   0  0  0  0  0  0  0  0  0  0  0  0
    2.3393   54.0517  127.0816 H   0  0  0  0  0  0  0  0  0  0  0  0
    3.5883   54.2055  123.0906 H   0  0  0  0  0  0  0  0  0  0  0  0
    4.2081   56.4166  124.3576 C   0  0  0  0  0  0  0  0  0  0  0  0
    2.9927   57.0007  124.0719 O   0  0  0  0  0  0  0  0  0  0  0  0
    3.1739   57.7119  123.3932 H   0  0  0  0  0  0  0  0  0  0  0  0
    8.6698   54.6457  125.5184 C   0  0  0  0  0  0  0  0  0  0  0  0
    8.6511   55.8160  124.6171 C   0  0  0  0  0  0  0  0  0  0  0  0
    7.9795   55.4412  123.2900 C   0  0  0  0  0  0  0  0  0  0  0  0
    8.8948   55.9066  122.1649 C   0  0  0  0  0  0  0  0  0  0  0  0
    8.9957   57.3446  122.2693 N   0  0  0  0  0  0  0  0  0  0  0  0
    9.8253   57.6443  122.8096 H   0  0  0  0  0  0  0  0  0  0  0  0
    8.8615   57.7843  121.3489 H   0  0  0  0  0  0  0  0  0  0  0  0
    5.5101   51.0356  128.9946 C   0  0  0  0  0  0  0  0  0  0  0  0
    5.6015   50.4999  130.3960 C   0  0  0  0  0  0  0  0  0  0  0  0
    4.7902   49.2009  130.4274 C   0  0  0  0  0  0  0  0  0  0  0  0
    5.0198   48.4890  129.2014 N   0  0  0  0  0  0  0  0  0  0  0  0
    5.3907   47.2702  129.2236 C   0  0  0  0  0  0  0  0  0  0  0  0
    5.6295   46.5196  128.0429 N   0  0  0  0  0  0  0  0  0  0  0  0
    5.5828   46.6487  130.5084 N   0  0  0  0  0  0  0  0  0  0  0  0
    5.3735   45.5183  128.0210 H   0  0  0  0  0  0  0  0  0  0  0  0
    6.0500   46.9537  127.2069 H   0  0  0  0  0  0  0  0  0  0  0  0
    5.0494   45.8163  130.8016 H   0  0  0  0  0  0  0  0  0  0  0  0
    6.2878   47.0537  131.1662 H   0  0  0  0  0  0  0  0  0  0  0  0
    9.2306   48.3435  129.3427 C   0  0  0  0  0  0  0  0  0  0  0  0
    9.7407   49.2644  131.6012 C   0  0  0  0  0  0  0  0  0  0  0  0
   10.5090   50.0808  130.9457 O   0  0  0  0  0  0  0  0  0  0  0  0
    9.0487   48.3596  130.7704 N   0  0  0  0  0  0  0  0  0  0  0  0
    8.3944   47.6798  131.2204 H   0  0  0  0  0  0  0  0  0  0  0  0
    9.6999   49.3599  133.0231 C   0  0  0  0  0  0  0  0  0  0  0  0
   10.3895   48.1530  133.5948 N   0  0  0  0  0  0  0  0  0  0  0  0
    9.7192   47.0923  134.2104 C   0  0  0  0  0  0  0  0  0  0  0  0
    8.4796   47.0398  134.3646 O   0  0  0  0  0  0  0  0  0  0  0  0
   11.4211   48.1267  133.5228 H   0  0  0  0  0  0  0  0  0  0  0  0
   10.4530   45.9949  134.6979 O   0  0  0  0  0  0  0  0  0  0  0  0
   11.7774   45.8394  134.2258 C   0  0  0  0  0  0  0  0  0  0  0  0
   11.8620   44.9457  133.0626 C   0  0  0  0  0  0  0  0  0  0  0  0
   12.3110   45.4279  131.8432 C   0  0  0  0  0  0  0  0  0  0  0  0
   12.3861   44.5927  130.7326 C   0  0  0  0  0  0  0  0  0  0  0  0
   12.0214   43.2595  130.7912 C   0  0  0  0  0  0  0  0  0  0  0  0
   11.5785   42.7938  132.0044 C   0  0  0  0  0  0  0  0  0  0  0  0
   11.5024   43.6309  133.1205 C   0  0  0  0  0  0  0  0  0  0  0  0
    9.8871   50.4876  133.8975 C   0  0  0  0  0  0  0  0  0  0  0  0
   10.3654   51.8253  133.6375 C   0  0  0  0  0  0  0  0  0  0  0  0
   11.0049   52.6647  134.6816 C   0  0  0  0  0  0  0  0  0  0  0  0
   11.7452   53.7830  134.0424 N   0  0  0  0  0  0  0  0  0  0  0  0
   11.3104   54.1741  133.1722 H   0  0  0  0  0  0  0  0  0  0  0  0
   12.9125   55.3270  135.5245 N   0  0  0  0  0  0  0  0  0  0  0  0
   12.9476   54.2952  134.5499 C   0  0  0  0  0  0  0  0  0  0  0  0
   14.0686   53.8562  134.1394 N   0  0  0  0  0  0  0  0  0  0  0  0
   13.6644   56.0256  135.5392 H   0  0  0  0  0  0  0  0  0  0  0  0
   12.1332   55.3603  136.1955 H   0  0  0  0  0  0  0  0  0  0  0  0
   14.2482   53.1194  133.4436 H   0  0  0  0  0  0  0  0  0  0  0  0
    9.6084   47.0042  128.8163 C   0  0  0  0  0  0  0  0  0  0  0  0
    9.1445   45.8551  129.6296 C   0  0  0  0  0  0  0  0  0  0  0  0
    9.0455   44.6166  128.9707 C   0  0  0  0  0  0  0  0  0  0  0  0
    8.6208   43.5281  129.6900 C   0  0  0  0  0  0  0  0  0  0  0  0
    8.2868   43.5942  131.0296 C   0  0  0  0  0  0  0  0  0  0  0  0
    8.3963   44.8178  131.6337 C   0  0  0  0  0  0  0  0  0  0  0  0
    8.8207   45.9396  130.9406 C   0  0  0  0  0  0  0  0  0  0  0  0
 66 67  1  0  0  0
 67 68  2  0  0  0
 67 64  1  0  0  0
 64 63  1  0  0  0
 63 62  1  0  0  0
 62 61  1  0  0  0
 61 48  1  0  0  0
 48 49  1  0  0  0
 49 50  1  0  0  0
 50 51  2  0  0  0
 50 53  1  0  0  0
 53 54  1  0  0  0
 54 55  1  0  0  0
 55 56  2  0  0  0
 56 57  1  0  0  0
 57 58  2  0  0  0
 58 59  1  0  0  0
 59 60  2  0  0  0
 48 44  1  0  0  0
 44 45  2  0  0  0
 44 46  1  0  0  0
 46 43  1  0  0  0
 43 72  1  0  0  0
 72 73  1  0  0  0
 73 74  2  0  0  0
 74 75  1  0  0  0
 75 76  2  0  0  0
 76 77  1  0  0  0
 77 78  2  0  0  0
 43  1  1  0  0  0
  1  2  2  0  0  0
  1  3  1  0  0  0
  3  5  1  0  0  0
  5 32  1  0  0  0
 32 33  1  0  0  0
 33 34  1  0  0  0
 34 35  1  0  0  0
 35 36  2  0  0  0
 36 37  1  0  0  0
 36 38  1  0  0  0
  5  6  1  0  0  0
  6  7  2  0  0  0
  6  8  1  0  0  0
  8 10  1  0  0  0
 10 25  1  0  0  0
 25 26  1  0  0  0
 26 27  1  0  0  0
 27 28  1  0  0  0
 28 29  1  0  0  0
 10 11  1  0  0  0
 11 12  2  0  0  0
 11 13  1  0  0  0
 13 15  1  0  0  0
 15 22  1  0  0  0
 22 23  1  0  0  0
 15 16  1  0  0  0
 16 17  1  0  0  0
 16 18  2  0  0  0
 60 55  1  0  0  0
 78 73  1  0  0  0
 66 69  1  0  0  0
 66 70  1  0  0  0
 68 71  1  0  0  0
 64 65  1  0  0  0
 49 52  1  0  0  0
 46 47  1  0  0  0
  3  4  1  0  0  0
 37 39  1  0  0  0
 37 40  1  0  0  0
 38 41  1  0  0  0
 38 42  1  0  0  0
  8  9  1  0  0  0
 29 30  1  0  0  0
 29 31  1  0  0  0
 13 14  1  0  0  0
 23 24  1  0  0  0
 17 19  1  0  0  0
 17 20  1  0  0  0
 18 21  1  0  0  0
M  END
> <minimizedAffinity>
5.59324

> <CNNscore>
0.4430629909

> <CNNaffinity>
8.1426639557

> <CNN_VS>
3.6077129841

> <CNNaffinity_variance>
0.2954902351

$$$$
[H]N=C(N([H])[H])N([H])C([H])([H])C([H])([H])C([H])([H])[C@@]([H])(C(=O)N([H])[C@]([H])(C(=O)N([H])[C@]([H])(C(=O)N([H])[C@]([H])(C(=O)N([H])[C@]([H])(C(=N[H])N([H])[H])C([H])([H])O[H])C([H])([H])C([H])([H])C([H])([H])C([H])([H])N([H])[H])C([H])([H])C([H])([H])C([H])([H])N=C(N([H])[H])N([H])[H])C([H])([H])c1c([H])c([H])c([H])c([H])c1[H])N([H])C(=O)OC([H])([H])c1c([H])c([H])c([H])c([H])c1[H]


 78 79  0  0  0  0  0  0  0  0999 V2000
    7.7062   49.0210  128.8006 C   0  0  0  0  0  0  0  0  0  0  0  0
    6.8799   48.4115  128.0791 O   0  0  0  0  0  0  0  0  0  0  0  0
    7.5544   50.4051  128.9955 N   0  0  0  0  0  0  0  0  0  0  0  0
    8.2728   50.9175  129.5946 H   0  0  0  0  0  0  0  0  0  0  0  0
    6.4847   51.1922  128.4441 C   0  0  0  0  0  0  0  0  0  0  0  0
    6.8910   52.6079  128.1898 C   0  0  0  0  0  0  0  0  0  0  0  0
    7.1920   53.3221  129.1668 O   0  0  0  0  0  0  0  0  0  0  0  0
    6.9440   53.1716  126.8958 N   0  0  0  0  0  0  0  0  0  0  0  0
    6.6812   52.5853  126.0832 H   0  0  0  0  0  0  0  0  0  0  0  0
    7.3649   54.5889  126.6957 C   0  0  0  0  0  0  0  0  0  0  0  0
    6.0772   55.2430  126.2368 C   0  0  0  0  0  0  0  0  0  0  0  0
    5.0742   54.5671  125.8815 O   0  0  0  0  0  0  0  0  0  0  0  0
    5.9085   56.6501  126.1795 N   0  0  0  0  0  0  0  0  0  0  0  0
    6.7067   57.2520  126.4559 H   0  0  0  0  0  0  0  0  0  0  0  0
    4.6729   57.2908  125.7685 C   0  0  0  0  0  0  0  0  0  0  0  0
    3.6018   56.9729  126.7727 C   0  0  0  0  0  0  0  0  0  0  0  0
    2.6849   55.8983  126.5464 N   0  0  0  0  0  0  0  0  0  0  0  0
    3.4677   57.6461  127.8498 N   0  0  0  0  0  0  0  0  0  0  0  0
    1.9918   55.6124  127.2624 H   0  0  0  0  0  0  0  0  0  0  0  0
    2.6788   55.3664  125.6504 H   0  0  0  0  0  0  0  0  0  0  0  0
    4.0860   58.4532  128.1005 H   0  0  0  0  0  0  0  0  0  0  0  0
    4.2467   56.8672  124.3969 C   0  0  0  0  0  0  0  0  0  0  0  0
    2.9281   57.1549  124.1171 O   0  0  0  0  0  0  0  0  0  0  0  0
    2.7756   56.8843  123.1669 H   0  0  0  0  0  0  0  0  0  0  0  0
    8.4325   54.5517  125.6891 C   0  0  0  0  0  0  0  0  0  0  0  0
    8.3743   55.4369  124.5080 C   0  0  0  0  0  0  0  0  0  0  0  0
    9.6046   55.2055  123.6218 C   0  0  0  0  0  0  0  0  0  0  0  0
    9.3060   55.8083  122.2552 C   0  0  0  0  0  0  0  0  0  0  0  0
    8.0160   55.3033  121.8431 N   0  0  0  0  0  0  0  0  0  0  0  0
    7.2440   55.9485  122.0835 H   0  0  0  0  0  0  0  0  0  0  0  0
    8.0521   54.9699  120.8704 H   0  0  0  0  0  0  0  0  0  0  0  0
    5.2412   51.1290  129.2528 C   0  0  0  0  0  0  0  0  0  0  0  0
    4.3451   49.9698  128.9172 C   0  0  0  0  0  0  0  0  0  0  0  0
    3.0022   50.5612  128.4772 C   0  0  0  0  0  0  0  0  0  0  0  0
    3.2181   51.3637  127.3060 N   0  0  0  0  0  0  0  0  0  0  0  0
    2.2283   51.8202  126.6461 C   0  0  0  0  0  0  0  0  0  0  0  0
    2.3846   52.6194  125.4837 N   0  0  0  0  0  0  0  0  0  0  0  0
    0.9038   51.4911  127.1060 N   0  0  0  0  0  0  0  0  0  0  0  0
    1.7206   53.3924  125.3096 H   0  0  0  0  0  0  0  0  0  0  0  0
    3.1482   52.4461  124.8120 H   0  0  0  0  0  0  0  0  0  0  0  0
    0.2221   52.2142  127.3813 H   0  0  0  0  0  0  0  0  0  0  0  0
    0.6227   50.4854  127.1615 H   0  0  0  0  0  0  0  0  0  0  0  0
    8.8083   48.2912  129.4323 C   0  0  0  0  0  0  0  0  0  0  0  0
    9.5808   49.1819  131.6275 C   0  0  0  0  0  0  0  0  0  0  0  0
   10.3383   49.9441  130.8984 O   0  0  0  0  0  0  0  0  0  0  0  0
    8.7582   48.3228  130.8704 N   0  0  0  0  0  0  0  0  0  0  0  0
    8.1043   47.6889  131.3834 H   0  0  0  0  0  0  0  0  0  0  0  0
    9.6755   49.2833  133.0464 C   0  0  0  0  0  0  0  0  0  0  0  0
   10.3599   48.0480  133.5610 N   0  0  0  0  0  0  0  0  0  0  0  0
    9.7082   47.0354  134.2704 C   0  0  0  0  0  0  0  0  0  0  0  0
    8.4934   47.0546  134.5653 O   0  0  0  0  0  0  0  0  0  0  0  0
   11.3736   47.9630  133.3728 H   0  0  0  0  0  0  0  0  0  0  0  0
   10.4328   45.9057  134.6938 O   0  0  0  0  0  0  0  0  0  0  0  0
   11.7580   45.7698  134.2182 C   0  0  0  0  0  0  0  0  0  0  0  0
   11.8413   44.9484  133.0028 C   0  0  0  0  0  0  0  0  0  0  0  0
   11.5620   43.5919  133.0568 C   0  0  0  0  0  0  0  0  0  0  0  0
   11.6469   42.8026  131.9137 C   0  0  0  0  0  0  0  0  0  0  0  0
   12.0091   43.3265  130.6857 C   0  0  0  0  0  0  0  0  0  0  0  0
   12.2831   44.6712  130.6451 C   0  0  0  0  0  0  0  0  0  0  0  0
   12.1983   45.4652  131.7917 C   0  0  0  0  0  0  0  0  0  0  0  0
    9.9932   50.4039  133.8919 C   0  0  0  0  0  0  0  0  0  0  0  0
   10.3729   51.7603  133.5728 C   0  0  0  0  0  0  0  0  0  0  0  0
   10.6520   52.7804  134.6145 C   0  0  0  0  0  0  0  0  0  0  0  0
   11.5190   53.8477  134.0518 N   0  0  0  0  0  0  0  0  0  0  0  0
   11.1612   54.3084  133.1806 H   0  0  0  0  0  0  0  0  0  0  0  0
   12.7489   55.1875  135.6752 N   0  0  0  0  0  0  0  0  0  0  0  0
   12.7389   54.2278  134.6290 C   0  0  0  0  0  0  0  0  0  0  0  0
   13.8367   53.7334  134.2191 N   0  0  0  0  0  0  0  0  0  0  0  0
   13.5504   55.8230  135.7621 H   0  0  0  0  0  0  0  0  0  0  0  0
   11.9522   55.2336  136.3247 H   0  0  0  0  0  0  0  0  0  0  0  0
   13.9836   53.0360  133.4766 H   0  0  0  0  0  0  0  0  0  0  0  0
    9.1070   46.9396  128.8870 C   0  0  0  0  0  0  0  0  0  0  0  0
    8.7989   45.8118  129.7982 C   0  0  0  0  0  0  0  0  0  0  0  0
    8.7939   44.5258  129.2289 C   0  0  0  0  0  0  0  0  0  0  0  0
    8.5143   43.4553  130.0404 C   0  0  0  0  0  0  0  0  0  0  0  0
    8.2383   43.5839  131.3885 C   0  0  0  0  0  0  0  0  0  0  0  0
    8.2526   44.8522  131.9036 C   0  0  0  0  0  0  0  0  0  0  0  0
    8.5298   45.9576  131.1161 C   0  0  0  0  0  0  0  0  0  0  0  0
 66 67  1  0  0  0
 67 68  2  0  0  0
 67 64  1  0  0  0
 64 63  1  0  0  0
 63 62  1  0  0  0
 62 61  1  0  0  0
 61 48  1  0  0  0
 48 49  1  0  0  0
 49 50  1  0  0  0
 50 51  2  0  0  0
 50 53  1  0  0  0
 53 54  1  0  0  0
 54 55  1  0  0  0
 55 56  2  0  0  0
 56 57  1  0  0  0
 57 58  2  0  0  0
 58 59  1  0  0  0
 59 60  2  0  0  0
 48 44  1  0  0  0
 44 45  2  0  0  0
 44 46  1  0  0  0
 46 43  1  0  0  0
 43 72  1  0  0  0
 72 73  1  0  0  0
 73 74  2  0  0  0
 74 75  1  0  0  0
 75 76  2  0  0  0
 76 77  1  0  0  0
 77 78  2  0  0  0
 43  1  1  0  0  0
  1  2  2  0  0  0
  1  3  1  0  0  0
  3  5  1  0  0  0
  5 32  1  0  0  0
 32 33  1  0  0  0
 33 34  1  0  0  0
 34 35  1  0  0  0
 35 36  2  0  0  0
 36 37  1  0  0  0
 36 38  1  0  0  0
  5  6  1  0  0  0
  6  7  2  0  0  0
  6  8  1  0  0  0
  8 10  1  0  0  0
 10 25  1  0  0  0
 25 26  1  0  0  0
 26 27  1  0  0  0
 27 28  1  0  0  0
 28 29  1  0  0  0
 10 11  1  0  0  0
 11 12  2  0  0  0
 11 13  1  0  0  0
 13 15  1  0  0  0
 15 22  1  0  0  0
 22 23  1  0  0  0
 15 16  1  0  0  0
 16 17  1  0  0  0
 16 18  2  0  0  0
 60 55  1  0  0  0
 78 73  1  0  0  0
 66 69  1  0  0  0
 66 70  1  0  0  0
 68 71  1  0  0  0
 64 65  1  0  0  0
 49 52  1  0  0  0
 46 47  1  0  0  0
  3  4  1  0  0  0
 37 39  1  0  0  0
 37 40  1  0  0  0
 38 41  1  0  0  0
 38 42  1  0  0  0
  8  9  1  0  0  0
 29 30  1  0  0  0
 29 31  1  0  0  0
 13 14  1  0  0  0
 23 24  1  0  0  0
 17 19  1  0  0  0
 17 20  1  0  0  0
 18 21  1  0  0  0
M  END
> <minimizedAffinity>
6.47599

> <CNNscore>
0.4325042367

> <CNNaffinity>
8.0019636154

> <CNN_VS>
3.4608831406

> <CNNaffinity_variance>
0.2294617593

$$$$
[H]N=C(N([H])[H])N([H])C([H])([H])C([H])([H])C([H])([H])[C@@]([H])(C(=O)N([H])[C@]([H])(C(=O)N([H])[C@]([H])(C(=O)N([H])[C@]([H])(C(=O)N([H])[C@]([H])(C(=N[H])N([H])[H])C([H])([H])O[H])C([H])([H])C([H])([H])C([H])([H])C([H])([H])N([H])[H])C([H])([H])C([H])([H])C([H])([H])N=C(N([H])[H])N([H])[H])C([H])([H])c1c([H])c([H])c([H])c([H])c1[H])N([H])C(=O)OC([H])([H])c1c([H])c([H])c([H])c([H])c1[H]


 78 79  0  0  0  0  0  0  0  0999 V2000
    7.6583   50.0326  130.1202 C   0  0  0  0  0  0  0  0  0  0  0  0
    6.9827   50.3952  131.1135 O   0  0  0  0  0  0  0  0  0  0  0  0
    9.0494   49.8813  130.2571 N   0  0  0  0  0  0  0  0  0  0  0  0
    9.6174   49.5914  129.4021 H   0  0  0  0  0  0  0  0  0  0  0  0
    9.7737   50.0858  131.4824 C   0  0  0  0  0  0  0  0  0  0  0  0
    9.8498   48.8458  132.3134 C   0  0  0  0  0  0  0  0  0  0  0  0
    8.8381   48.5001  132.9553 O   0  0  0  0  0  0  0  0  0  0  0  0
   11.0156   48.0536  132.4069 N   0  0  0  0  0  0  0  0  0  0  0  0
   11.8621   48.3454  131.8860 H   0  0  0  0  0  0  0  0  0  0  0  0
   11.0362   46.8192  133.2446 C   0  0  0  0  0  0  0  0  0  0  0  0
   11.5367   45.7766  132.2652 C   0  0  0  0  0  0  0  0  0  0  0  0
   12.5223   45.0347  132.5247 O   0  0  0  0  0  0  0  0  0  0  0  0
   10.9340   45.5597  130.9998 N   0  0  0  0  0  0  0  0  0  0  0  0
   10.1223   46.1488  130.7350 H   0  0  0  0  0  0  0  0  0  0  0  0
   11.3846   44.5470  130.0630 C   0  0  0  0  0  0  0  0  0  0  0  0
   11.3108   43.2016  130.7270 C   0  0  0  0  0  0  0  0  0  0  0  0
   10.1589   42.3690  130.5633 N   0  0  0  0  0  0  0  0  0  0  0  0
   12.2597   42.7590  131.4586 N   0  0  0  0  0  0  0  0  0  0  0  0
   10.1227   41.4062  130.9461 H   0  0  0  0  0  0  0  0  0  0  0  0
    9.3125   42.7031  130.0556 H   0  0  0  0  0  0  0  0  0  0  0  0
   13.1390   43.2973  131.6422 H   0  0  0  0  0  0  0  0  0  0  0  0
   12.7736   44.8121  129.5704 C   0  0  0  0  0  0  0  0  0  0  0  0
   13.7350   44.0504  130.1992 O   0  0  0  0  0  0  0  0  0  0  0  0
   14.6032   44.2674  129.7535 H   0  0  0  0  0  0  0  0  0  0  0  0
    9.6561   46.6238  133.7045 C   0  0  0  0  0  0  0  0  0  0  0  0
    9.2313   45.3199  134.2538 C   0  0  0  0  0  0  0  0  0  0  0  0
   10.0471   44.9931  135.5109 C   0  0  0  0  0  0  0  0  0  0  0  0
   10.9254   43.7911  135.1884 C   0  0  0  0  0  0  0  0  0  0  0  0
   10.4085   43.2034  133.9734 N   0  0  0  0  0  0  0  0  0  0  0  0
   10.8985   43.5459  133.1292 H   0  0  0  0  0  0  0  0  0  0  0  0
   10.3213   42.1832  134.0738 H   0  0  0  0  0  0  0  0  0  0  0  0
    9.2609   51.2312  132.2755 C   0  0  0  0  0  0  0  0  0  0  0  0
    9.6739   51.2151  133.7207 C   0  0  0  0  0  0  0  0  0  0  0  0
    9.6304   52.6661  134.2098 C   0  0  0  0  0  0  0  0  0  0  0  0
    8.4036   52.8696  134.9282 N   0  0  0  0  0  0  0  0  0  0  0  0
    8.3935   53.5468  136.0075 C   0  0  0  0  0  0  0  0  0  0  0  0
    7.2100   53.7801  136.7554 N   0  0  0  0  0  0  0  0  0  0  0  0
    9.6456   54.0791  136.4796 N   0  0  0  0  0  0  0  0  0  0  0  0
    7.0806   54.6924  137.2241 H   0  0  0  0  0  0  0  0  0  0  0  0
    6.4764   53.0594  136.8378 H   0  0  0  0  0  0  0  0  0  0  0  0
    9.7990   55.0905  136.6091 H   0  0  0  0  0  0  0  0  0  0  0  0
   10.4255   53.4182  136.7001 H   0  0  0  0  0  0  0  0  0  0  0  0
    6.9975   49.7670  128.8399 C   0  0  0  0  0  0  0  0  0  0  0  0
    6.7727   52.1444  128.1284 C   0  0  0  0  0  0  0  0  0  0  0  0
    6.2548   52.3070  129.3082 O   0  0  0  0  0  0  0  0  0  0  0  0
    7.1848   50.8198  127.8765 N   0  0  0  0  0  0  0  0  0  0  0  0
    7.6295   50.6096  126.9541 H   0  0  0  0  0  0  0  0  0  0  0  0
    6.8460   53.2690  127.2551 C   0  0  0  0  0  0  0  0  0  0  0  0
    5.4806   53.4999  126.6710 N   0  0  0  0  0  0  0  0  0  0  0  0
    4.3534   52.7437  127.0041 C   0  0  0  0  0  0  0  0  0  0  0  0
    4.3622   51.7876  127.8097 O   0  0  0  0  0  0  0  0  0  0  0  0
    5.3913   54.2650  125.9805 H   0  0  0  0  0  0  0  0  0  0  0  0
    3.1117   53.0504  126.4172 O   0  0  0  0  0  0  0  0  0  0  0  0
    2.5456   54.3111  126.7189 C   0  0  0  0  0  0  0  0  0  0  0  0
    3.1894   55.4101  125.9863 C   0  0  0  0  0  0  0  0  0  0  0  0
    3.4637   56.6087  126.6258 C   0  0  0  0  0  0  0  0  0  0  0  0
    4.0646   57.6596  125.9391 C   0  0  0  0  0  0  0  0  0  0  0  0
    4.4122   57.5598  124.6038 C   0  0  0  0  0  0  0  0  0  0  0  0
    4.1355   56.3676  123.9816 C   0  0  0  0  0  0  0  0  0  0  0  0
    3.5324   55.3115  124.6695 C   0  0  0  0  0  0  0  0  0  0  0  0
    7.5360   54.5247  127.3918 C   0  0  0  0  0  0  0  0  0  0  0  0
    8.2367   55.3366  126.4246 C   0  0  0  0  0  0  0  0  0  0  0  0
    7.6031   55.8139  125.1698 C   0  0  0  0  0  0  0  0  0  0  0  0
    7.3802   54.6665  124.2526 N   0  0  0  0  0  0  0  0  0  0  0  0
    6.9302   53.8236  124.6841 H   0  0  0  0  0  0  0  0  0  0  0  0
    6.8385   54.1834  121.9252 N   0  0  0  0  0  0  0  0  0  0  0  0
    7.7418   54.6867  122.8982 C   0  0  0  0  0  0  0  0  0  0  0  0
    8.8728   55.1385  122.5315 N   0  0  0  0  0  0  0  0  0  0  0  0
    7.2128   53.7347  121.0813 H   0  0  0  0  0  0  0  0  0  0  0  0
    5.8257   54.2721  122.0841 H   0  0  0  0  0  0  0  0  0  0  0  0
    9.6224   55.5310  123.1173 H   0  0  0  0  0  0  0  0  0  0  0  0
    7.1874   48.4079  128.2653 C   0  0  0  0  0  0  0  0  0  0  0  0
    7.2962   47.3142  129.2599 C   0  0  0  0  0  0  0  0  0  0  0  0
    8.0163   46.1728  128.8643 C   0  0  0  0  0  0  0  0  0  0  0  0
    8.1405   45.1389  129.7578 C   0  0  0  0  0  0  0  0  0  0  0  0
    7.5912   45.1690  131.0257 C   0  0  0  0  0  0  0  0  0  0  0  0
    6.8976   46.2974  131.3716 C   0  0  0  0  0  0  0  0  0  0  0  0
    6.7501   47.3614  130.4969 C   0  0  0  0  0  0  0  0  0  0  0  0
 66 67  1  0  0  0
 67 68  2  0  0  0
 67 64  1  0  0  0
 64 63  1  0  0  0
 63 62  1  0  0  0
 62 61  1  0  0  0
 61 48  1  0  0  0
 48 49  1  0  0  0
 49 50  1  0  0  0
 50 51  2  0  0  0
 50 53  1  0  0  0
 53 54  1  0  0  0
 54 55  1  0  0  0
 55 56  2  0  0  0
 56 57  1  0  0  0
 57 58  2  0  0  0
 58 59  1  0  0  0
 59 60  2  0  0  0
 48 44  1  0  0  0
 44 45  2  0  0  0
 44 46  1  0  0  0
 46 43  1  0  0  0
 43 72  1  0  0  0
 72 73  1  0  0  0
 73 74  2  0  0  0
 74 75  1  0  0  0
 75 76  2  0  0  0
 76 77  1  0  0  0
 77 78  2  0  0  0
 43  1  1  0  0  0
  1  2  2  0  0  0
  1  3  1  0  0  0
  3  5  1  0  0  0
  5 32  1  0  0  0
 32 33  1  0  0  0
 33 34  1  0  0  0
 34 35  1  0  0  0
 35 36  2  0  0  0
 36 37  1  0  0  0
 36 38  1  0  0  0
  5  6  1  0  0  0
  6  7  2  0  0  0
  6  8  1  0  0  0
  8 10  1  0  0  0
 10 25  1  0  0  0
 25 26  1  0  0  0
 26 27  1  0  0  0
 27 28  1  0  0  0
 28 29  1  0  0  0
 10 11  1  0  0  0
 11 12  2  0  0  0
 11 13  1  0  0  0
 13 15  1  0  0  0
 15 22  1  0  0  0
 22 23  1  0  0  0
 15 16  1  0  0  0
 16 17  1  0  0  0
 16 18  2  0  0  0
 60 55  1  0  0  0
 78 73  1  0  0  0
 66 69  1  0  0  0
 66 70  1  0  0  0
 68 71  1  0  0  0
 64 65  1  0  0  0
 49 52  1  0  0  0
 46 47  1  0  0  0
  3  4  1  0  0  0
 37 39  1  0  0  0
 37 40  1  0  0  0
 38 41  1  0  0  0
 38 42  1  0  0  0
  8  9  1  0  0  0
 29 30  1  0  0  0
 29 31  1  0  0  0
 13 14  1  0  0  0
 23 24  1  0  0  0
 17 19  1  0  0  0
 17 20  1  0  0  0
 18 21  1  0  0  0
M  END
> <minimizedAffinity>
11.34996

> <CNNscore>
0.4041641057

> <CNNaffinity>
8.0047073364

> <CNN_VS>
3.2352154255

> <CNNaffinity_variance>
0.5717970729

$$$$
[H]N=C(N([H])[H])N([H])C([H])([H])C([H])([H])C([H])([H])[C@@]([H])(C(=O)N([H])[C@]([H])(C(=O)N([H])[C@]([H])(C(=O)N([H])[C@]([H])(C(=O)N([H])[C@]([H])(C(=N[H])N([H])[H])C([H])([H])O[H])C([H])([H])C([H])([H])C([H])([H])C([H])([H])N([H])[H])C([H])([H])C([H])([H])C([H])([H])N=C(N([H])[H])N([H])[H])C([H])([H])c1c([H])c([H])c([H])c([H])c1[H])N([H])C(=O)OC([H])([H])c1c([H])c([H])c([H])c([H])c1[H]


 78 79  0  0  0  0  0  0  0  0999 V2000
    9.5908   47.8811  130.5367 C   0  0  0  0  0  0  0  0  0  0  0  0
   10.2308   47.0123  131.1772 O   0  0  0  0  0  0  0  0  0  0  0  0
    8.6016   47.4697  129.6263 N   0  0  0  0  0  0  0  0  0  0  0  0
    8.0766   48.2149  129.0726 H   0  0  0  0  0  0  0  0  0  0  0  0
    8.2355   46.1000  129.3862 C   0  0  0  0  0  0  0  0  0  0  0  0
    7.8402   45.3874  130.6391 C   0  0  0  0  0  0  0  0  0  0  0  0
    6.7486   45.6790  131.1669 O   0  0  0  0  0  0  0  0  0  0  0  0
    8.6488   44.4048  131.2522 N   0  0  0  0  0  0  0  0  0  0  0  0
    9.5624   44.1701  130.8242 H   0  0  0  0  0  0  0  0  0  0  0  0
    8.2033   43.7167  132.4988 C   0  0  0  0  0  0  0  0  0  0  0  0
    9.4910   43.6289  133.2930 C   0  0  0  0  0  0  0  0  0  0  0  0
    9.8425   42.5707  133.8810 O   0  0  0  0  0  0  0  0  0  0  0  0
   10.3870   44.7202  133.4262 N   0  0  0  0  0  0  0  0  0  0  0  0
   10.1410   45.6166  132.9660 H   0  0  0  0  0  0  0  0  0  0  0  0
   11.6366   44.6433  134.1603 C   0  0  0  0  0  0  0  0  0  0  0  0
   12.6187   45.6040  133.5527 C   0  0  0  0  0  0  0  0  0  0  0  0
   13.6555   46.1877  134.3471 N   0  0  0  0  0  0  0  0  0  0  0  0
   12.5614   45.9359  132.3207 N   0  0  0  0  0  0  0  0  0  0  0  0
   14.3900   46.7886  133.9296 H   0  0  0  0  0  0  0  0  0  0  0  0
   13.7068   46.0323  135.3762 H   0  0  0  0  0  0  0  0  0  0  0  0
   11.8359   45.5666  131.6620 H   0  0  0  0  0  0  0  0  0  0  0  0
   12.2000   43.2559  134.1712 C   0  0  0  0  0  0  0  0  0  0  0  0
   12.9109   42.9418  133.0329 O   0  0  0  0  0  0  0  0  0  0  0  0
   13.2838   42.0254  133.1768 H   0  0  0  0  0  0  0  0  0  0  0  0
    7.6525   42.4258  132.0691 C   0  0  0  0  0  0  0  0  0  0  0  0
    7.7280   42.0183  130.6512 C   0  0  0  0  0  0  0  0  0  0  0  0
    9.0391   41.2648  130.3945 C   0  0  0  0  0  0  0  0  0  0  0  0
   10.0656   42.2811  129.9112 C   0  0  0  0  0  0  0  0  0  0  0  0
   11.0138   42.4682  130.9859 N   0  0  0  0  0  0  0  0  0  0  0  0
   11.8480   41.8647  130.8863 H   0  0  0  0  0  0  0  0  0  0  0  0
   11.1859   43.4699  131.1460 H   0  0  0  0  0  0  0  0  0  0  0  0
    9.2752   45.3427  128.6448 C   0  0  0  0  0  0  0  0  0  0  0  0
   10.4409   46.1767  128.1920 C   0  0  0  0  0  0  0  0  0  0  0  0
   11.6211   45.2197  127.9978 C   0  0  0  0  0  0  0  0  0  0  0  0
   11.9917   44.6855  129.2783 N   0  0  0  0  0  0  0  0  0  0  0  0
   13.2038   44.3768  129.5216 C   0  0  0  0  0  0  0  0  0  0  0  0
   13.6248   43.8477  130.7694 N   0  0  0  0  0  0  0  0  0  0  0  0
   14.1704   44.5677  128.4713 N   0  0  0  0  0  0  0  0  0  0  0  0
   14.5466   44.1217  131.1488 H   0  0  0  0  0  0  0  0  0  0  0  0
   13.0287   43.1984  131.3056 H   0  0  0  0  0  0  0  0  0  0  0  0
   14.9859   45.1893  128.5811 H   0  0  0  0  0  0  0  0  0  0  0  0
   14.0427   44.0580  127.5672 H   0  0  0  0  0  0  0  0  0  0  0  0
    9.8733   49.3035  130.7450 C   0  0  0  0  0  0  0  0  0  0  0  0
    7.5637   50.1371  130.3210 C   0  0  0  0  0  0  0  0  0  0  0  0
    7.2327   49.2861  131.2445 O   0  0  0  0  0  0  0  0  0  0  0  0
    8.9492   50.1706  130.0624 N   0  0  0  0  0  0  0  0  0  0  0  0
    9.2997   50.8440  129.3439 H   0  0  0  0  0  0  0  0  0  0  0  0
    6.5331   50.8936  129.6900 C   0  0  0  0  0  0  0  0  0  0  0  0
    7.0442   51.3628  128.3567 N   0  0  0  0  0  0  0  0  0  0  0  0
    7.1162   52.7067  127.9799 C   0  0  0  0  0  0  0  0  0  0  0  0
    6.7510   53.6593  128.7026 O   0  0  0  0  0  0  0  0  0  0  0  0
    7.3516   50.6329  127.6913 H   0  0  0  0  0  0  0  0  0  0  0  0
    7.6294   53.0478  126.7146 O   0  0  0  0  0  0  0  0  0  0  0  0
    7.8527   54.4201  126.4540 C   0  0  0  0  0  0  0  0  0  0  0  0
    8.0384   54.7013  125.0239 C   0  0  0  0  0  0  0  0  0  0  0  0
    8.5635   55.9167  124.6140 C   0  0  0  0  0  0  0  0  0  0  0  0
    8.7349   56.1973  123.2617 C   0  0  0  0  0  0  0  0  0  0  0  0
    8.3942   55.2894  122.2751 C   0  0  0  0  0  0  0  0  0  0  0  0
    7.8752   54.0892  122.6937 C   0  0  0  0  0  0  0  0  0  0  0  0
    7.7026   53.8057  124.0509 C   0  0  0  0  0  0  0  0  0  0  0  0
    5.1126   50.6735  129.6171 C   0  0  0  0  0  0  0  0  0  0  0  0
    4.2804   50.1706  128.5492 C   0  0  0  0  0  0  0  0  0  0  0  0
    2.9065   50.6742  128.2991 C   0  0  0  0  0  0  0  0  0  0  0  0
    2.8406   51.3062  126.9562 N   0  0  0  0  0  0  0  0  0  0  0  0
    3.5915   51.0181  126.2836 H   0  0  0  0  0  0  0  0  0  0  0  0
    0.5964   52.2101  127.2559 N   0  0  0  0  0  0  0  0  0  0  0  0
    1.8511   52.2302  126.5918 C   0  0  0  0  0  0  0  0  0  0  0  0
    2.0588   53.0775  125.6662 N   0  0  0  0  0  0  0  0  0  0  0  0
   -0.2481   52.4744  126.7356 H   0  0  0  0  0  0  0  0  0  0  0  0
    0.5536   51.9268  128.2442 H   0  0  0  0  0  0  0  0  0  0  0  0
    2.9093   53.2090  125.1019 H   0  0  0  0  0  0  0  0  0  0  0  0
   10.1475   49.7268  132.1447 C   0  0  0  0  0  0  0  0  0  0  0  0
    9.8031   48.7266  133.1830 C   0  0  0  0  0  0  0  0  0  0  0  0
    8.5305   48.1351  133.0899 C   0  0  0  0  0  0  0  0  0  0  0  0
    8.1748   47.2032  134.0321 C   0  0  0  0  0  0  0  0  0  0  0  0
    9.0089   46.8207  135.0657 C   0  0  0  0  0  0  0  0  0  0  0  0
   10.2384   47.4203  135.1211 C   0  0  0  0  0  0  0  0  0  0  0  0
   10.6331   48.3657  134.1888 C   0  0  0  0  0  0  0  0  0  0  0  0
 66 67  1  0  0  0
 67 68  2  0  0  0
 67 64  1  0  0  0
 64 63  1  0  0  0
 63 62  1  0  0  0
 62 61  1  0  0  0
 61 48  1  0  0  0
 48 49  1  0  0  0
 49 50  1  0  0  0
 50 51  2  0  0  0
 50 53  1  0  0  0
 53 54  1  0  0  0
 54 55  1  0  0  0
 55 56  2  0  0  0
 56 57  1  0  0  0
 57 58  2  0  0  0
 58 59  1  0  0  0
 59 60  2  0  0  0
 48 44  1  0  0  0
 44 45  2  0  0  0
 44 46  1  0  0  0
 46 43  1  0  0  0
 43 72  1  0  0  0
 72 73  1  0  0  0
 73 74  2  0  0  0
 74 75  1  0  0  0
 75 76  2  0  0  0
 76 77  1  0  0  0
 77 78  2  0  0  0
 43  1  1  0  0  0
  1  2  2  0  0  0
  1  3  1  0  0  0
  3  5  1  0  0  0
  5 32  1  0  0  0
 32 33  1  0  0  0
 33 34  1  0  0  0
 34 35  1  0  0  0
 35 36  2  0  0  0
 36 37  1  0  0  0
 36 38  1  0  0  0
  5  6  1  0  0  0
  6  7  2  0  0  0
  6  8  1  0  0  0
  8 10  1  0  0  0
 10 25  1  0  0  0
 25 26  1  0  0  0
 26 27  1  0  0  0
 27 28  1  0  0  0
 28 29  1  0  0  0
 10 11  1  0  0  0
 11 12  2  0  0  0
 11 13  1  0  0  0
 13 15  1  0  0  0
 15 22  1  0  0  0
 22 23  1  0  0  0
 15 16  1  0  0  0
 16 17  1  0  0  0
 16 18  2  0  0  0
 60 55  1  0  0  0
 78 73  1  0  0  0
 66 69  1  0  0  0
 66 70  1  0  0  0
 68 71  1  0  0  0
 64 65  1  0  0  0
 49 52  1  0  0  0
 46 47  1  0  0  0
  3  4  1  0  0  0
 37 39  1  0  0  0
 37 40  1  0  0  0
 38 41  1  0  0  0
 38 42  1  0  0  0
  8  9  1  0  0  0
 29 30  1  0  0  0
 29 31  1  0  0  0
 13 14  1  0  0  0
 23 24  1  0  0  0
 17 19  1  0  0  0
 17 20  1  0  0  0
 18 21  1  0  0  0
M  END
> <minimizedAffinity>
2.27687

> <CNNscore>
0.3997951150

> <CNNaffinity>
8.3442201614

> <CNN_VS>
3.3359785080

> <CNNaffinity_variance>
0.3115797043

$$$$
[H]N=C(N([H])[H])N([H])C([H])([H])C([H])([H])C([H])([H])[C@@]([H])(C(=O)N([H])[C@]([H])(C(=O)N([H])[C@]([H])(C(=O)N([H])[C@]([H])(C(=O)N([H])[C@]([H])(C(=N[H])N([H])[H])C([H])([H])O[H])C([H])([H])C([H])([H])C([H])([H])C([H])([H])N([H])[H])C([H])([H])C([H])([H])C([H])([H])N=C(N([H])[H])N([H])[H])C([H])([H])c1c([H])c([H])c([H])c([H])c1[H])N([H])C(=O)OC([H])([H])c1c([H])c([H])c([H])c([H])c1[H]


 78 79  0  0  0  0  0  0  0  0999 V2000
    7.4065   49.0160  128.4167 C   0  0  0  0  0  0  0  0  0  0  0  0
    6.4141   48.7776  127.6867 O   0  0  0  0  0  0  0  0  0  0  0  0
    8.1158   47.9407  128.9799 N   0  0  0  0  0  0  0  0  0  0  0  0
    8.9461   48.1541  129.6145 H   0  0  0  0  0  0  0  0  0  0  0  0
    7.8047   46.5546  128.7569 C   0  0  0  0  0  0  0  0  0  0  0  0
    7.3987   45.8523  130.0123 C   0  0  0  0  0  0  0  0  0  0  0  0
    6.3157   46.1682  130.5437 O   0  0  0  0  0  0  0  0  0  0  0  0
    8.1880   44.8531  130.6237 N   0  0  0  0  0  0  0  0  0  0  0  0
    9.0948   44.5981  130.1926 H   0  0  0  0  0  0  0  0  0  0  0  0
    7.7324   44.1763  131.8728 C   0  0  0  0  0  0  0  0  0  0  0  0
    8.6178   44.8153  132.9237 C   0  0  0  0  0  0  0  0  0  0  0  0
    8.2252   45.7831  133.6296 O   0  0  0  0  0  0  0  0  0  0  0  0
    9.9382   44.3706  133.1890 N   0  0  0  0  0  0  0  0  0  0  0  0
   10.3117   43.5802  132.6308 H   0  0  0  0  0  0  0  0  0  0  0  0
   10.7880   44.9543  134.2105 C   0  0  0  0  0  0  0  0  0  0  0  0
   11.6305   46.0305  133.5871 C   0  0  0  0  0  0  0  0  0  0  0  0
   11.1649   46.7502  132.4415 N   0  0  0  0  0  0  0  0  0  0  0  0
   12.7823   46.3351  134.0473 N   0  0  0  0  0  0  0  0  0  0  0  0
   11.6946   47.5491  132.0467 H   0  0  0  0  0  0  0  0  0  0  0  0
   10.2770   46.4936  131.9604 H   0  0  0  0  0  0  0  0  0  0  0  0
   13.2102   45.8611  134.8772 H   0  0  0  0  0  0  0  0  0  0  0  0
   11.6549   43.9306  134.8759 C   0  0  0  0  0  0  0  0  0  0  0  0
   12.7291   43.5361  134.1075 O   0  0  0  0  0  0  0  0  0  0  0  0
   13.2615   42.9039  134.6700 H   0  0  0  0  0  0  0  0  0  0  0  0
    7.9626   42.7426  131.6587 C   0  0  0  0  0  0  0  0  0  0  0  0
    8.5263   42.2611  130.3810 C   0  0  0  0  0  0  0  0  0  0  0  0
   10.0487   42.1200  130.5030 C   0  0  0  0  0  0  0  0  0  0  0  0
   10.3575   41.7003  131.9343 C   0  0  0  0  0  0  0  0  0  0  0  0
   11.7879   41.8124  132.1086 N   0  0  0  0  0  0  0  0  0  0  0  0
   12.0660   42.7206  132.5182 H   0  0  0  0  0  0  0  0  0  0  0  0
   12.1643   40.9682  132.5605 H   0  0  0  0  0  0  0  0  0  0  0  0
    8.8911   45.8207  128.0603 C   0  0  0  0  0  0  0  0  0  0  0  0
   10.2759   46.2840  128.4167 C   0  0  0  0  0  0  0  0  0  0  0  0
   11.1637   45.0364  128.4562 C   0  0  0  0  0  0  0  0  0  0  0  0
   11.5390   44.7855  129.8196 N   0  0  0  0  0  0  0  0  0  0  0  0
   12.7502   44.5243  130.1171 C   0  0  0  0  0  0  0  0  0  0  0  0
   13.1756   44.2710  131.4471 N   0  0  0  0  0  0  0  0  0  0  0  0
   13.7108   44.4760  129.0453 N   0  0  0  0  0  0  0  0  0  0  0  0
   14.1024   44.6109  131.7541 H   0  0  0  0  0  0  0  0  0  0  0  0
   12.5779   43.7577  132.1132 H   0  0  0  0  0  0  0  0  0  0  0  0
   14.5323   45.0986  129.0149 H   0  0  0  0  0  0  0  0  0  0  0  0
   13.5722   43.7855  128.2722 H   0  0  0  0  0  0  0  0  0  0  0  0
    7.8172   50.3995  128.6690 C   0  0  0  0  0  0  0  0  0  0  0  0
    7.3005   52.6421  127.7137 C   0  0  0  0  0  0  0  0  0  0  0  0
    7.3023   53.0215  128.9557 O   0  0  0  0  0  0  0  0  0  0  0  0
    7.5885   51.2720  127.5474 N   0  0  0  0  0  0  0  0  0  0  0  0
    7.6243   50.8911  126.5746 H   0  0  0  0  0  0  0  0  0  0  0  0
    7.0035   53.6065  126.7066 C   0  0  0  0  0  0  0  0  0  0  0  0
    5.6700   54.2226  127.0250 N   0  0  0  0  0  0  0  0  0  0  0  0
    5.1444   55.3304  126.3543 C   0  0  0  0  0  0  0  0  0  0  0  0
    5.7308   55.9354  125.4306 O   0  0  0  0  0  0  0  0  0  0  0  0
    5.1267   53.7897  127.7915 H   0  0  0  0  0  0  0  0  0  0  0  0
    3.8757   55.8229  126.7126 O   0  0  0  0  0  0  0  0  0  0  0  0
    2.7942   55.5135  125.8549 C   0  0  0  0  0  0  0  0  0  0  0  0
    2.1063   54.2727  126.2370 C   0  0  0  0  0  0  0  0  0  0  0  0
    1.0424   54.3095  127.1245 C   0  0  0  0  0  0  0  0  0  0  0  0
    0.3896   53.1394  127.5007 C   0  0  0  0  0  0  0  0  0  0  0  0
    0.7660   51.9004  127.0138 C   0  0  0  0  0  0  0  0  0  0  0  0
    1.8210   51.8771  126.1355 C   0  0  0  0  0  0  0  0  0  0  0  0
    2.4774   53.0509  125.7566 C   0  0  0  0  0  0  0  0  0  0  0  0
    7.8435   54.5749  126.0522 C   0  0  0  0  0  0  0  0  0  0  0  0
    8.8273   54.4294  125.0050 C   0  0  0  0  0  0  0  0  0  0  0  0
    8.8564   55.3040  123.8058 C   0  0  0  0  0  0  0  0  0  0  0  0
    7.4778   55.4820  123.2814 N   0  0  0  0  0  0  0  0  0  0  0  0
    7.0556   56.4297  123.4321 H   0  0  0  0  0  0  0  0  0  0  0  0
    5.5565   53.9841  123.1892 N   0  0  0  0  0  0  0  0  0  0  0  0
    6.7691   54.4640  122.6278 C   0  0  0  0  0  0  0  0  0  0  0  0
    7.2048   53.9568  121.5458 N   0  0  0  0  0  0  0  0  0  0  0  0
    5.3017   52.9983  123.0587 H   0  0  0  0  0  0  0  0  0  0  0  0
    4.9568   54.6296  123.7206 H   0  0  0  0  0  0  0  0  0  0  0  0
    8.0598   54.2000  121.0271 H   0  0  0  0  0  0  0  0  0  0  0  0
    7.3921   50.9909  129.9663 C   0  0  0  0  0  0  0  0  0  0  0  0
    8.0930   50.4596  131.1594 C   0  0  0  0  0  0  0  0  0  0  0  0
    7.6565   49.2131  131.6429 C   0  0  0  0  0  0  0  0  0  0  0  0
    8.2815   48.6869  132.7453 C   0  0  0  0  0  0  0  0  0  0  0  0
    9.3180   49.3251  133.3999 C   0  0  0  0  0  0  0  0  0  0  0  0
    9.7125   50.5362  132.8982 C   0  0  0  0  0  0  0  0  0  0  0  0
    9.1056   51.1000  131.7879 C   0  0  0  0  0  0  0  0  0  0  0  0
 66 67  1  0  0  0
 67 68  2  0  0  0
 67 64  1  0  0  0
 64 63  1  0  0  0
 63 62  1  0  0  0
 62 61  1  0  0  0
 61 48  1  0  0  0
 48 49  1  0  0  0
 49 50  1  0  0  0
 50 51  2  0  0  0
 50 53  1  0  0  0
 53 54  1  0  0  0
 54 55  1  0  0  0
 55 56  2  0  0  0
 56 57  1  0  0  0
 57 58  2  0  0  0
 58 59  1  0  0  0
 59 60  2  0  0  0
 48 44  1  0  0  0
 44 45  2  0  0  0
 44 46  1  0  0  0
 46 43  1  0  0  0
 43 72  1  0  0  0
 72 73  1  0  0  0
 73 74  2  0  0  0
 74 75  1  0  0  0
 75 76  2  0  0  0
 76 77  1  0  0  0
 77 78  2  0  0  0
 43  1  1  0  0  0
  1  2  2  0  0  0
  1  3  1  0  0  0
  3  5  1  0  0  0
  5 32  1  0  0  0
 32 33  1  0  0  0
 33 34  1  0  0  0
 34 35  1  0  0  0
 35 36  2  0  0  0
 36 37  1  0  0  0
 36 38  1  0  0  0
  5  6  1  0  0  0
  6  7  2  0  0  0
  6  8  1  0  0  0
  8 10  1  0  0  0
 10 25  1  0  0  0
 25 26  1  0  0  0
 26 27  1  0  0  0
 27 28  1  0  0  0
 28 29  1  0  0  0
 10 11  1  0  0  0
 11 12  2  0  0  0
 11 13  1  0  0  0
 13 15  1  0  0  0
 15 22  1  0  0  0
 22 23  1  0  0  0
 15 16  1  0  0  0
 16 17  1  0  0  0
 16 18  2  0  0  0
 60 55  1  0  0  0
 78 73  1  0  0  0
 66 69  1  0  0  0
 66 70  1  0  0  0
 68 71  1  0  0  0
 64 65  1  0  0  0
 49 52  1  0  0  0
 46 47  1  0  0  0
  3  4  1  0  0  0
 37 39  1  0  0  0
 37 40  1  0  0  0
 38 41  1  0  0  0
 38 42  1  0  0  0
  8  9  1  0  0  0
 29 30  1  0  0  0
 29 31  1  0  0  0
 13 14  1  0  0  0
 23 24  1  0  0  0
 17 19  1  0  0  0
 17 20  1  0  0  0
 18 21  1  0  0  0
M  END
> <minimizedAffinity>
0.78367

> <CNNscore>
0.3963994682

> <CNNaffinity>
8.0566024780

> <CNN_VS>
3.1936328411

> <CNNaffinity_variance>
0.2318493575

$$$$
[H]N=C(N([H])[H])N([H])C([H])([H])C([H])([H])C([H])([H])[C@@]([H])(C(=O)N([H])[C@]([H])(C(=O)N([H])[C@]([H])(C(=O)N([H])[C@]([H])(C(=O)N([H])[C@]([H])(C(=N[H])N([H])[H])C([H])([H])O[H])C([H])([H])C([H])([H])C([H])([H])C([H])([H])N([H])[H])C([H])([H])C([H])([H])C([H])([H])N=C(N([H])[H])N([H])[H])C([H])([H])c1c([H])c([H])c([H])c([H])c1[H])N([H])C(=O)OC([H])([H])c1c([H])c([H])c([H])c([H])c1[H]


 78 79  0  0  0  0  0  0  0  0999 V2000
    7.9519   47.4014  130.2568 C   0  0  0  0  0  0  0  0  0  0  0  0
    7.4847   47.1697  131.3981 O   0  0  0  0  0  0  0  0  0  0  0  0
    9.2637   47.8937  130.1413 N   0  0  0  0  0  0  0  0  0  0  0  0
    9.6450   48.1057  129.1680 H   0  0  0  0  0  0  0  0  0  0  0  0
   10.1447   48.1312  131.2527 C   0  0  0  0  0  0  0  0  0  0  0  0
    9.9087   47.1796  132.3808 C   0  0  0  0  0  0  0  0  0  0  0  0
    9.9614   45.9562  132.1445 O   0  0  0  0  0  0  0  0  0  0  0  0
    9.6246   47.6040  133.6978 N   0  0  0  0  0  0  0  0  0  0  0  0
    9.5663   48.6194  133.8948 H   0  0  0  0  0  0  0  0  0  0  0  0
    9.4052   46.6122  134.7905 C   0  0  0  0  0  0  0  0  0  0  0  0
   10.5507   45.6432  134.5773 C   0  0  0  0  0  0  0  0  0  0  0  0
   10.4307   44.4079  134.7980 O   0  0  0  0  0  0  0  0  0  0  0  0
   11.8270   46.0529  134.1138 N   0  0  0  0  0  0  0  0  0  0  0  0
   11.9799   47.0609  133.9230 H   0  0  0  0  0  0  0  0  0  0  0  0
   12.9249   45.1334  133.8788 C   0  0  0  0  0  0  0  0  0  0  0  0
   12.7143   44.4503  132.5576 C   0  0  0  0  0  0  0  0  0  0  0  0
   12.9081   45.1595  131.3303 N   0  0  0  0  0  0  0  0  0  0  0  0
   12.3527   43.2276  132.4820 N   0  0  0  0  0  0  0  0  0  0  0  0
   12.8465   44.6852  130.4104 H   0  0  0  0  0  0  0  0  0  0  0  0
   13.1148   46.1807  131.3175 H   0  0  0  0  0  0  0  0  0  0  0  0
   12.1807   42.6290  133.3237 H   0  0  0  0  0  0  0  0  0  0  0  0
   13.0586   44.1223  134.9753 C   0  0  0  0  0  0  0  0  0  0  0  0
   12.0009   43.2410  135.0430 O   0  0  0  0  0  0  0  0  0  0  0  0
   12.2253   42.5856  135.7637 H   0  0  0  0  0  0  0  0  0  0  0  0
    8.0689   46.0506  134.5596 C   0  0  0  0  0  0  0  0  0  0  0  0
    7.9065   44.6137  134.2576 C   0  0  0  0  0  0  0  0  0  0  0  0
    7.9154   44.3958  132.7394 C   0  0  0  0  0  0  0  0  0  0  0  0
    8.2242   42.9255  132.4885 C   0  0  0  0  0  0  0  0  0  0  0  0
    9.5343   42.6681  133.0419 N   0  0  0  0  0  0  0  0  0  0  0  0
    9.4898   42.2963  134.0062 H   0  0  0  0  0  0  0  0  0  0  0  0
   10.1133   42.1440  132.3720 H   0  0  0  0  0  0  0  0  0  0  0  0
   10.1173   49.5385  131.7247 C   0  0  0  0  0  0  0  0  0  0  0  0
   10.3561   49.6993  133.2000 C   0  0  0  0  0  0  0  0  0  0  0  0
   10.5708   51.1947  133.4534 C   0  0  0  0  0  0  0  0  0  0  0  0
    9.4166   51.7134  134.1326 N   0  0  0  0  0  0  0  0  0  0  0  0
    9.4912   52.8018  134.7909 C   0  0  0  0  0  0  0  0  0  0  0  0
    8.3819   53.3599  135.4782 N   0  0  0  0  0  0  0  0  0  0  0  0
   10.7643   53.4732  134.8389 N   0  0  0  0  0  0  0  0  0  0  0  0
    8.2674   54.3870  135.5018 H   0  0  0  0  0  0  0  0  0  0  0  0
    7.6874   52.7614  135.9513 H   0  0  0  0  0  0  0  0  0  0  0  0
   10.8928   54.4338  134.4866 H   0  0  0  0  0  0  0  0  0  0  0  0
   11.5863   52.9709  135.2460 H   0  0  0  0  0  0  0  0  0  0  0  0
    7.1362   47.1539  129.0652 C   0  0  0  0  0  0  0  0  0  0  0  0
    7.1908   49.5991  128.5886 C   0  0  0  0  0  0  0  0  0  0  0  0
    8.3673   49.5418  129.1354 O   0  0  0  0  0  0  0  0  0  0  0  0
    6.5413   48.3492  128.5276 N   0  0  0  0  0  0  0  0  0  0  0  0
    5.5956   48.3070  128.0841 H   0  0  0  0  0  0  0  0  0  0  0  0
    6.7045   50.8649  128.1482 C   0  0  0  0  0  0  0  0  0  0  0  0
    5.2381   50.7264  127.8489 N   0  0  0  0  0  0  0  0  0  0  0  0
    4.2725   50.4221  128.8122 C   0  0  0  0  0  0  0  0  0  0  0  0
    4.5249   50.2183  130.0197 O   0  0  0  0  0  0  0  0  0  0  0  0
    4.9472   50.8636  126.8657 H   0  0  0  0  0  0  0  0  0  0  0  0
    2.9191   50.3333  128.4367 O   0  0  0  0  0  0  0  0  0  0  0  0
    2.5889   50.6984  127.1106 C   0  0  0  0  0  0  0  0  0  0  0  0
    2.0114   52.0466  127.0223 C   0  0  0  0  0  0  0  0  0  0  0  0
    0.8149   52.3363  127.6590 C   0  0  0  0  0  0  0  0  0  0  0  0
    0.2540   53.6071  127.5742 C   0  0  0  0  0  0  0  0  0  0  0  0
    0.8552   54.6282  126.8603 C   0  0  0  0  0  0  0  0  0  0  0  0
    2.0398   54.3289  126.2343 C   0  0  0  0  0  0  0  0  0  0  0  0
    2.6045   53.0536  126.3184 C   0  0  0  0  0  0  0  0  0  0  0  0
    6.9819   52.1965  128.6187 C   0  0  0  0  0  0  0  0  0  0  0  0
    7.5126   53.3554  127.9396 C   0  0  0  0  0  0  0  0  0  0  0  0
    6.6507   54.3284  127.2226 C   0  0  0  0  0  0  0  0  0  0  0  0
    7.1345   54.4943  125.8277 N   0  0  0  0  0  0  0  0  0  0  0  0
    6.4647   54.1956  125.0784 H   0  0  0  0  0  0  0  0  0  0  0  0
    8.8016   56.2581  126.0577 N   0  0  0  0  0  0  0  0  0  0  0  0
    8.3988   55.0110  125.5115 C   0  0  0  0  0  0  0  0  0  0  0  0
    9.1839   54.3833  124.7322 N   0  0  0  0  0  0  0  0  0  0  0  0
    9.4194   56.8672  125.5091 H   0  0  0  0  0  0  0  0  0  0  0  0
    8.4645   56.5323  126.9904 H   0  0  0  0  0  0  0  0  0  0  0  0
    9.0298   53.4791  124.2654 H   0  0  0  0  0  0  0  0  0  0  0  0
    7.7352   46.2786  128.0220 C   0  0  0  0  0  0  0  0  0  0  0  0
    8.8554   45.4251  128.4845 C   0  0  0  0  0  0  0  0  0  0  0  0
    8.5093   44.1903  129.0620 C   0  0  0  0  0  0  0  0  0  0  0  0
    9.5184   43.3711  129.5015 C   0  0  0  0  0  0  0  0  0  0  0  0
   10.8561   43.7040  129.4022 C   0  0  0  0  0  0  0  0  0  0  0  0
   11.1508   44.9144  128.8347 C   0  0  0  0  0  0  0  0  0  0  0  0
   10.1598   45.7689  128.3799 C   0  0  0  0  0  0  0  0  0  0  0  0
 66 67  1  0  0  0
 67 68  2  0  0  0
 67 64  1  0  0  0
 64 63  1  0  0  0
 63 62  1  0  0  0
 62 61  1  0  0  0
 61 48  1  0  0  0
 48 49  1  0  0  0
 49 50  1  0  0  0
 50 51  2  0  0  0
 50 53  1  0  0  0
 53 54  1  0  0  0
 54 55  1  0  0  0
 55 56  2  0  0  0
 56 57  1  0  0  0
 57 58  2  0  0  0
 58 59  1  0  0  0
 59 60  2  0  0  0
 48 44  1  0  0  0
 44 45  2  0  0  0
 44 46  1  0  0  0
 46 43  1  0  0  0
 43 72  1  0  0  0
 72 73  1  0  0  0
 73 74  2  0  0  0
 74 75  1  0  0  0
 75 76  2  0  0  0
 76 77  1  0  0  0
 77 78  2  0  0  0
 43  1  1  0  0  0
  1  2  2  0  0  0
  1  3  1  0  0  0
  3  5  1  0  0  0
  5 32  1  0  0  0
 32 33  1  0  0  0
 33 34  1  0  0  0
 34 35  1  0  0  0
 35 36  2  0  0  0
 36 37  1  0  0  0
 36 38  1  0  0  0
  5  6  1  0  0  0
  6  7  2  0  0  0
  6  8  1  0  0  0
  8 10  1  0  0  0
 10 25  1  0  0  0
 25 26  1  0  0  0
 26 27  1  0  0  0
 27 28  1  0  0  0
 28 29  1  0  0  0
 10 11  1  0  0  0
 11 12  2  0  0  0
 11 13  1  0  0  0
 13 15  1  0  0  0
 15 22  1  0  0  0
 22 23  1  0  0  0
 15 16  1  0  0  0
 16 17  1  0  0  0
 16 18  2  0  0  0
 60 55  1  0  0  0
 78 73  1  0  0  0
 66 69  1  0  0  0
 66 70  1  0  0  0
 68 71  1  0  0  0
 64 65  1  0  0  0
 49 52  1  0  0  0
 46 47  1  0  0  0
  3  4  1  0  0  0
 37 39  1  0  0  0
 37 40  1  0  0  0
 38 41  1  0  0  0
 38 42  1  0  0  0
  8  9  1  0  0  0
 29 30  1  0  0  0
 29 31  1  0  0  0
 13 14  1  0  0  0
 23 24  1  0  0  0
 17 19  1  0  0  0
 17 20  1  0  0  0
 18 21  1  0  0  0
M  END
> <minimizedAffinity>
11.60139

> <CNNscore>
0.3872483969

> <CNNaffinity>
7.9939012527

> <CNN_VS>
3.0956254005

> <CNNaffinity_variance>
0.4033226073

$$$$
[H]N=C(N([H])[H])N([H])C([H])([H])C([H])([H])C([H])([H])[C@@]([H])(C(=O)N([H])[C@]([H])(C(=O)N([H])[C@]([H])(C(=O)N([H])[C@]([H])(C(=O)N([H])[C@]([H])(C(=N[H])N([H])[H])C([H])([H])O[H])C([H])([H])C([H])([H])C([H])([H])C([H])([H])N([H])[H])C([H])([H])C([H])([H])C([H])([H])N=C(N([H])[H])N([H])[H])C([H])([H])c1c([H])c([H])c([H])c([H])c1[H])N([H])C(=O)OC([H])([H])c1c([H])c([H])c([H])c([H])c1[H]


 78 79  0  0  0  0  0  0  0  0999 V2000
    8.7323   47.6800  131.0096 C   0  0  0  0  0  0  0  0  0  0  0  0
    8.8423   46.7273  131.8190 O   0  0  0  0  0  0  0  0  0  0  0  0
    9.6132   48.7708  131.1129 N   0  0  0  0  0  0  0  0  0  0  0  0
    9.4992   49.5844  130.4326 H   0  0  0  0  0  0  0  0  0  0  0  0
   10.6751   48.8710  132.0773 C   0  0  0  0  0  0  0  0  0  0  0  0
   11.3401   47.5568  132.3316 C   0  0  0  0  0  0  0  0  0  0  0  0
   11.5422   47.2144  133.5136 O   0  0  0  0  0  0  0  0  0  0  0  0
   11.7526   46.6908  131.2948 N   0  0  0  0  0  0  0  0  0  0  0  0
   11.5989   46.9783  130.3116 H   0  0  0  0  0  0  0  0  0  0  0  0
   12.4049   45.3849  131.6032 C   0  0  0  0  0  0  0  0  0  0  0  0
   11.2321   44.4257  131.5686 C   0  0  0  0  0  0  0  0  0  0  0  0
   10.0414   44.8216  131.6900 O   0  0  0  0  0  0  0  0  0  0  0  0
   11.3889   43.0270  131.3938 N   0  0  0  0  0  0  0  0  0  0  0  0
   12.3498   42.6490  131.2952 H   0  0  0  0  0  0  0  0  0  0  0  0
   10.2744   42.0996  131.3312 C   0  0  0  0  0  0  0  0  0  0  0  0
    9.2388   42.5135  132.3375 C   0  0  0  0  0  0  0  0  0  0  0  0
    9.5311   42.4890  133.7378 N   0  0  0  0  0  0  0  0  0  0  0  0
    8.0710   42.8922  131.9850 N   0  0  0  0  0  0  0  0  0  0  0  0
    8.8592   42.8465  134.4418 H   0  0  0  0  0  0  0  0  0  0  0  0
   10.4300   42.1067  134.1005 H   0  0  0  0  0  0  0  0  0  0  0  0
    7.7620   42.9378  130.9854 H   0  0  0  0  0  0  0  0  0  0  0  0
   10.7030   40.6852  131.5727 C   0  0  0  0  0  0  0  0  0  0  0  0
   11.8773   40.5806  132.2868 O   0  0  0  0  0  0  0  0  0  0  0  0
   12.0309   39.6041  132.4360 H   0  0  0  0  0  0  0  0  0  0  0  0
   13.0299   45.5503  132.9209 C   0  0  0  0  0  0  0  0  0  0  0  0
   12.3284   45.0993  134.1403 C   0  0  0  0  0  0  0  0  0  0  0  0
   12.6221   43.6150  134.3917 C   0  0  0  0  0  0  0  0  0  0  0  0
   12.1668   43.2907  135.8087 C   0  0  0  0  0  0  0  0  0  0  0  0
   10.8361   43.8340  135.9600 N   0  0  0  0  0  0  0  0  0  0  0  0
   10.0992   43.1338  135.7683 H   0  0  0  0  0  0  0  0  0  0  0  0
   10.7570   44.3565  136.8428 H   0  0  0  0  0  0  0  0  0  0  0  0
   10.2473   49.5093  133.3475 C   0  0  0  0  0  0  0  0  0  0  0  0
    8.7891   49.3321  133.6666 C   0  0  0  0  0  0  0  0  0  0  0  0
    8.7089   48.3524  134.8415 C   0  0  0  0  0  0  0  0  0  0  0  0
    7.8241   47.2797  134.4823 N   0  0  0  0  0  0  0  0  0  0  0  0
    8.2381   46.0747  134.4840 C   0  0  0  0  0  0  0  0  0  0  0  0
    7.4062   44.9774  134.1399 N   0  0  0  0  0  0  0  0  0  0  0  0
    9.6130   45.8362  134.8401 N   0  0  0  0  0  0  0  0  0  0  0  0
    7.5164   44.0824  134.6454 H   0  0  0  0  0  0  0  0  0  0  0  0
    6.6932   45.0564  133.3986 H   0  0  0  0  0  0  0  0  0  0  0  0
    9.8784   45.2454  135.6425 H   0  0  0  0  0  0  0  0  0  0  0  0
   10.3682   46.2754  134.2653 H   0  0  0  0  0  0  0  0  0  0  0  0
    7.7002   47.6453  129.9704 C   0  0  0  0  0  0  0  0  0  0  0  0
    5.6644   48.8647  129.2106 C   0  0  0  0  0  0  0  0  0  0  0  0
    5.4405   47.7863  128.5226 O   0  0  0  0  0  0  0  0  0  0  0  0
    6.8371   48.7970  129.9902 N   0  0  0  0  0  0  0  0  0  0  0  0
    7.0788   49.6195  130.5884 H   0  0  0  0  0  0  0  0  0  0  0  0
    4.7498   49.9519  129.0911 C   0  0  0  0  0  0  0  0  0  0  0  0
    5.5422   51.2275  129.0278 N   0  0  0  0  0  0  0  0  0  0  0  0
    6.7641   51.3524  128.3610 C   0  0  0  0  0  0  0  0  0  0  0  0
    7.3351   50.4165  127.7600 O   0  0  0  0  0  0  0  0  0  0  0  0
    5.1454   52.0485  129.5163 H   0  0  0  0  0  0  0  0  0  0  0  0
    7.4218   52.5964  128.3414 O   0  0  0  0  0  0  0  0  0  0  0  0
    6.7271   53.6881  127.7700 C   0  0  0  0  0  0  0  0  0  0  0  0
    7.4894   54.3458  126.6998 C   0  0  0  0  0  0  0  0  0  0  0  0
    7.9012   53.6234  125.5910 C   0  0  0  0  0  0  0  0  0  0  0  0
    8.6318   54.2340  124.5759 C   0  0  0  0  0  0  0  0  0  0  0  0
    8.9773   55.5726  124.6240 C   0  0  0  0  0  0  0  0  0  0  0  0
    8.5636   56.2774  125.7272 C   0  0  0  0  0  0  0  0  0  0  0  0
    7.8300   55.6661  126.7472 C   0  0  0  0  0  0  0  0  0  0  0  0
    3.5444   50.0884  128.3166 C   0  0  0  0  0  0  0  0  0  0  0  0
    2.8251   51.2595  127.8726 C   0  0  0  0  0  0  0  0  0  0  0  0
    1.8811   51.2336  126.7272 C   0  0  0  0  0  0  0  0  0  0  0  0
    2.1439   52.3917  125.8344 N   0  0  0  0  0  0  0  0  0  0  0  0
    2.4164   52.1516  124.8509 H   0  0  0  0  0  0  0  0  0  0  0  0
    2.9706   54.6844  125.7751 N   0  0  0  0  0  0  0  0  0  0  0  0
    2.0427   53.7243  126.2580 C   0  0  0  0  0  0  0  0  0  0  0  0
    1.1387   54.0813  127.0784 N   0  0  0  0  0  0  0  0  0  0  0  0
    3.2445   55.4641  126.3839 H   0  0  0  0  0  0  0  0  0  0  0  0
    3.3561   54.5802  124.8268 H   0  0  0  0  0  0  0  0  0  0  0  0
    0.4049   53.5025  127.5094 H   0  0  0  0  0  0  0  0  0  0  0  0
    8.1502   47.2753  128.6014 C   0  0  0  0  0  0  0  0  0  0  0  0
    8.8890   45.9936  128.5073 C   0  0  0  0  0  0  0  0  0  0  0  0
   10.2522   46.0759  128.1713 C   0  0  0  0  0  0  0  0  0  0  0  0
   10.9709   44.9110  128.0757 C   0  0  0  0  0  0  0  0  0  0  0  0
   10.4167   43.6639  128.2942 C   0  0  0  0  0  0  0  0  0  0  0  0
    9.0872   43.6271  128.6183 C   0  0  0  0  0  0  0  0  0  0  0  0
    8.3285   44.7813  128.7237 C   0  0  0  0  0  0  0  0  0  0  0  0
 66 67  1  0  0  0
 67 68  2  0  0  0
 67 64  1  0  0  0
 64 63  1  0  0  0
 63 62  1  0  0  0
 62 61  1  0  0  0
 61 48  1  0  0  0
 48 49  1  0  0  0
 49 50  1  0  0  0
 50 51  2  0  0  0
 50 53  1  0  0  0
 53 54  1  0  0  0
 54 55  1  0  0  0
 55 56  2  0  0  0
 56 57  1  0  0  0
 57 58  2  0  0  0
 58 59  1  0  0  0
 59 60  2  0  0  0
 48 44  1  0  0  0
 44 45  2  0  0  0
 44 46  1  0  0  0
 46 43  1  0  0  0
 43 72  1  0  0  0
 72 73  1  0  0  0
 73 74  2  0  0  0
 74 75  1  0  0  0
 75 76  2  0  0  0
 76 77  1  0  0  0
 77 78  2  0  0  0
 43  1  1  0  0  0
  1  2  2  0  0  0
  1  3  1  0  0  0
  3  5  1  0  0  0
  5 32  1  0  0  0
 32 33  1  0  0  0
 33 34  1  0  0  0
 34 35  1  0  0  0
 35 36  2  0  0  0
 36 37  1  0  0  0
 36 38  1  0  0  0
  5  6  1  0  0  0
  6  7  2  0  0  0
  6  8  1  0  0  0
  8 10  1  0  0  0
 10 25  1  0  0  0
 25 26  1  0  0  0
 26 27  1  0  0  0
 27 28  1  0  0  0
 28 29  1  0  0  0
 10 11  1  0  0  0
 11 12  2  0  0  0
 11 13  1  0  0  0
 13 15  1  0  0  0
 15 22  1  0  0  0
 22 23  1  0  0  0
 15 16  1  0  0  0
 16 17  1  0  0  0
 16 18  2  0  0  0
 60 55  1  0  0  0
 78 73  1  0  0  0
 66 69  1  0  0  0
 66 70  1  0  0  0
 68 71  1  0  0  0
 64 65  1  0  0  0
 49 52  1  0  0  0
 46 47  1  0  0  0
  3  4  1  0  0  0
 37 39  1  0  0  0
 37 40  1  0  0  0
 38 41  1  0  0  0
 38 42  1  0  0  0
  8  9  1  0  0  0
 29 30  1  0  0  0
 29 31  1  0  0  0
 13 14  1  0  0  0
 23 24  1  0  0  0
 17 19  1  0  0  0
 17 20  1  0  0  0
 18 21  1  0  0  0
M  END
> <minimizedAffinity>
6.90078

> <CNNscore>
0.3819358647

> <CNNaffinity>
8.1531400681

> <CNN_VS>
3.1139767170

> <CNNaffinity_variance>
0.2784363329

$$$$
[H]OC(=O)C([H])([H])[C@@]([H])(C([H])=O)N([H])C(=O)[C@@]([H])(N([H])C(=O)[C@@]([H])(N([H])C(=O)C([H])([H])[H])C([H])([H])c1c([H])c([H])c(O[H])c([H])c1[H])C([H])(C([H])([H])[H])C([H])([H])[H]


 35 35  0  0  0  0  0  0  0  0999 V2000
   10.1752   46.2611  131.6644 N   0  0  0  0  0  0  0  0  0  0  0  0
    9.5692   45.9306  132.8811 C   0  0  0  0  0  0  0  0  0  0  0  0
    8.7273   45.0024  132.9050 O   0  0  0  0  0  0  0  0  0  0  0  0
   10.8731   47.0212  131.6125 H   0  0  0  0  0  0  0  0  0  0  0  0
    9.8738   45.5695  130.3976 C   0  0  0  0  0  0  0  0  0  0  0  0
    9.6580   44.1390  130.6571 C   0  0  0  0  0  0  0  0  0  0  0  0
   10.6431   43.3266  130.5770 O   0  0  0  0  0  0  0  0  0  0  0  0
    8.3975   43.5979  131.0016 N   0  0  0  0  0  0  0  0  0  0  0  0
    7.5299   44.1608  131.1193 H   0  0  0  0  0  0  0  0  0  0  0  0
    8.2225   42.1634  131.2482 C   0  0  0  0  0  0  0  0  0  0  0  0
    8.3189   41.4333  129.9595 C   0  0  0  0  0  0  0  0  0  0  0  0
    8.2574   40.2406  129.8314 O   0  0  0  0  0  0  0  0  0  0  0  0
    6.8934   41.8858  131.9197 C   0  0  0  0  0  0  0  0  0  0  0  0
    7.0797   41.6677  133.3553 C   0  0  0  0  0  0  0  0  0  0  0  0
    6.1545   40.9679  134.1083 O   0  0  0  0  0  0  0  0  0  0  0  0
    8.0959   42.1191  133.9313 O   0  0  0  0  0  0  0  0  0  0  0  0
    5.8584   40.0230  133.8476 H   0  0  0  0  0  0  0  0  0  0  0  0
   12.2684   45.0764  129.7667 C   0  0  0  0  0  0  0  0  0  0  0  0
   11.0072   45.8105  129.4357 C   0  0  0  0  0  0  0  0  0  0  0  0
   10.6448   45.5842  128.0029 C   0  0  0  0  0  0  0  0  0  0  0  0
    9.8899   46.6410  134.1397 C   0  0  0  0  0  0  0  0  0  0  0  0
   11.2778   47.0377  134.2018 N   0  0  0  0  0  0  0  0  0  0  0  0
   12.3009   46.0642  134.3075 C   0  0  0  0  0  0  0  0  0  0  0  0
   13.7381   46.4397  134.3728 C   0  0  0  0  0  0  0  0  0  0  0  0
   12.0422   44.8269  134.3515 O   0  0  0  0  0  0  0  0  0  0  0  0
   11.5088   48.0485  134.1670 H   0  0  0  0  0  0  0  0  0  0  0  0
    8.9811   47.8554  134.3303 C   0  0  0  0  0  0  0  0  0  0  0  0
    8.7538   48.4658  133.0018 C   0  0  0  0  0  0  0  0  0  0  0  0
    7.6946   48.0397  132.2062 C   0  0  0  0  0  0  0  0  0  0  0  0
    7.4845   48.6106  130.9683 C   0  0  0  0  0  0  0  0  0  0  0  0
    8.3050   49.6209  130.4641 C   0  0  0  0  0  0  0  0  0  0  0  0
    8.0448   50.1636  129.2014 O   0  0  0  0  0  0  0  0  0  0  0  0
    9.3529   50.0393  131.2561 C   0  0  0  0  0  0  0  0  0  0  0  0
    9.5555   49.4632  132.4922 C   0  0  0  0  0  0  0  0  0  0  0  0
    7.4199   50.9782  129.1180 H   0  0  0  0  0  0  0  0  0  0  0  0
 18 19  1  0  0  0
 19 20  1  0  0  0
 19  5  1  0  0  0
  5  1  1  0  0  0
  1  2  1  0  0  0
  2  3  2  0  0  0
  2 21  1  0  0  0
 21 27  1  0  0  0
 27 28  1  0  0  0
 28 29  2  0  0  0
 29 30  1  0  0  0
 30 31  2  0  0  0
 31 32  1  0  0  0
 31 33  1  0  0  0
 33 34  2  0  0  0
 21 22  1  0  0  0
 22 23  1  0  0  0
 23 24  1  0  0  0
 23 25  2  0  0  0
  5  6  1  0  0  0
  6  7  2  0  0  0
  6  8  1  0  0  0
  8 10  1  0  0  0
 10 13  1  0  0  0
 13 14  1  0  0  0
 14 15  1  0  0  0
 14 16  2  0  0  0
 10 11  1  0  0  0
 11 12  2  0  0  0
 34 28  1  0  0  0
  1  4  1  0  0  0
 32 35  1  0  0  0
 22 26  1  0  0  0
  8  9  1  0  0  0
 15 17  1  0  0  0
M  END
> <minimizedAffinity>
6.05206

> <CNNscore>
0.3675419092

> <CNNaffinity>
7.1842231750

> <CNN_VS>
2.6405031681

> <CNNaffinity_variance>
2.9465644360

$$$$
[H]OC(=O)C([H])([H])[C@@]([H])(C([H])=O)N([H])C(=O)[C@@]([H])(N([H])C(=O)[C@@]([H])(N([H])C(=O)C([H])([H])[H])C([H])([H])c1c([H])c([H])c(O[H])c([H])c1[H])C([H])(C([H])([H])[H])C([H])([H])[H]


 35 35  0  0  0  0  0  0  0  0999 V2000
   10.3331   45.7260  132.0649 N   0  0  0  0  0  0  0  0  0  0  0  0
   10.1402   45.2747  133.3748 C   0  0  0  0  0  0  0  0  0  0  0  0
   10.2538   44.0500  133.6155 O   0  0  0  0  0  0  0  0  0  0  0  0
   10.2465   46.7297  131.8351 H   0  0  0  0  0  0  0  0  0  0  0  0
   10.6659   44.8298  130.9424 C   0  0  0  0  0  0  0  0  0  0  0  0
    9.9800   43.5422  131.1206 C   0  0  0  0  0  0  0  0  0  0  0  0
   10.2678   42.5612  130.3515 O   0  0  0  0  0  0  0  0  0  0  0  0
    9.0019   43.3195  132.1176 N   0  0  0  0  0  0  0  0  0  0  0  0
    8.7018   44.0319  132.8145 H   0  0  0  0  0  0  0  0  0  0  0  0
    8.3367   42.0207  132.2598 C   0  0  0  0  0  0  0  0  0  0  0  0
    8.0546   41.4689  130.9112 C   0  0  0  0  0  0  0  0  0  0  0  0
    7.0168   41.5839  130.3175 O   0  0  0  0  0  0  0  0  0  0  0  0
    7.0575   42.1505  133.0606 C   0  0  0  0  0  0  0  0  0  0  0  0
    6.9811   41.1011  134.0786 C   0  0  0  0  0  0  0  0  0  0  0  0
    5.7981   40.4374  134.3482 O   0  0  0  0  0  0  0  0  0  0  0  0
    8.0024   40.7845  134.7304 O   0  0  0  0  0  0  0  0  0  0  0  0
    5.2666   39.9707  133.6078 H   0  0  0  0  0  0  0  0  0  0  0  0
   12.6727   43.3606  131.3776 C   0  0  0  0  0  0  0  0  0  0  0  0
   12.1624   44.6751  130.8769 C   0  0  0  0  0  0  0  0  0  0  0  0
   12.7442   44.9706  129.5317 C   0  0  0  0  0  0  0  0  0  0  0  0
    9.8068   46.1961  134.4846 C   0  0  0  0  0  0  0  0  0  0  0  0
   10.9162   47.0545  134.8306 N   0  0  0  0  0  0  0  0  0  0  0  0
   12.2431   46.6840  134.5023 C   0  0  0  0  0  0  0  0  0  0  0  0
   13.4060   47.5452  134.8438 C   0  0  0  0  0  0  0  0  0  0  0  0
   12.5041   45.6018  133.9020 O   0  0  0  0  0  0  0  0  0  0  0  0
   10.7210   47.9464  135.3234 H   0  0  0  0  0  0  0  0  0  0  0  0
    8.5718   47.0326  134.1500 C   0  0  0  0  0  0  0  0  0  0  0  0
    8.5479   47.2416  132.6854 C   0  0  0  0  0  0  0  0  0  0  0  0
    7.7280   46.4584  131.8786 C   0  0  0  0  0  0  0  0  0  0  0  0
    7.7070   46.6555  130.5136 C   0  0  0  0  0  0  0  0  0  0  0  0
    8.4890   47.6280  129.8885 C   0  0  0  0  0  0  0  0  0  0  0  0
    8.4276   47.7836  128.4997 O   0  0  0  0  0  0  0  0  0  0  0  0
    9.2995   48.4011  130.6922 C   0  0  0  0  0  0  0  0  0  0  0  0
    9.3141   48.1974  132.0557 C   0  0  0  0  0  0  0  0  0  0  0  0
    7.7418   48.4350  128.0918 H   0  0  0  0  0  0  0  0  0  0  0  0
 18 19  1  0  0  0
 19 20  1  0  0  0
 19  5  1  0  0  0
  5  1  1  0  0  0
  1  2  1  0  0  0
  2  3  2  0  0  0
  2 21  1  0  0  0
 21 27  1  0  0  0
 27 28  1  0  0  0
 28 29  2  0  0  0
 29 30  1  0  0  0
 30 31  2  0  0  0
 31 32  1  0  0  0
 31 33  1  0  0  0
 33 34  2  0  0  0
 21 22  1  0  0  0
 22 23  1  0  0  0
 23 24  1  0  0  0
 23 25  2  0  0  0
  5  6  1  0  0  0
  6  7  2  0  0  0
  6  8  1  0  0  0
  8 10  1  0  0  0
 10 13  1  0  0  0
 13 14  1  0  0  0
 14 15  1  0  0  0
 14 16  2  0  0  0
 10 11  1  0  0  0
 11 12  2  0  0  0
 34 28  1  0  0  0
  1  4  1  0  0  0
 32 35  1  0  0  0
 22 26  1  0  0  0
  8  9  1  0  0  0
 15 17  1  0  0  0
M  END
> <minimizedAffinity>
6.80363

> <CNNscore>
0.3151891530

> <CNNaffinity>
7.1402540207

> <CNN_VS>
2.2505307198

> <CNNaffinity_variance>
2.6414012909

$$$$
[H]OC(=O)C([H])([H])[C@@]([H])(C([H])=O)N([H])C(=O)[C@@]([H])(N([H])C(=O)[C@@]([H])(N([H])C(=O)C([H])([H])[H])C([H])([H])c1c([H])c([H])c(O[H])c([H])c1[H])C([H])(C([H])([H])[H])C([H])([H])[H]


 35 35  0  0  0  0  0  0  0  0999 V2000
    8.1682   44.3488  131.1126 N   0  0  0  0  0  0  0  0  0  0  0  0
    7.6032   45.2874  131.9823 C   0  0  0  0  0  0  0  0  0  0  0  0
    7.4593   44.9835  133.1897 O   0  0  0  0  0  0  0  0  0  0  0  0
    8.3000   44.5698  130.1119 H   0  0  0  0  0  0  0  0  0  0  0  0
    8.6074   43.0092  131.5444 C   0  0  0  0  0  0  0  0  0  0  0  0
    9.4358   43.1286  132.7527 C   0  0  0  0  0  0  0  0  0  0  0  0
    9.5121   42.1441  133.5662 O   0  0  0  0  0  0  0  0  0  0  0  0
   10.1723   44.2928  133.0724 N   0  0  0  0  0  0  0  0  0  0  0  0
   10.2072   45.1466  132.4780 H   0  0  0  0  0  0  0  0  0  0  0  0
   10.9836   44.3741  134.2908 C   0  0  0  0  0  0  0  0  0  0  0  0
   10.5798   45.5746  135.0645 C   0  0  0  0  0  0  0  0  0  0  0  0
    9.4884   46.0760  135.0480 O   0  0  0  0  0  0  0  0  0  0  0  0
   12.4603   44.4268  133.9576 C   0  0  0  0  0  0  0  0  0  0  0  0
   12.6553   44.7251  132.5376 C   0  0  0  0  0  0  0  0  0  0  0  0
   12.5987   46.0197  132.0544 O   0  0  0  0  0  0  0  0  0  0  0  0
   12.8796   43.7971  131.7272 O   0  0  0  0  0  0  0  0  0  0  0  0
   13.1827   46.7629  132.4479 H   0  0  0  0  0  0  0  0  0  0  0  0
    9.3627   43.1488  129.1392 C   0  0  0  0  0  0  0  0  0  0  0  0
    9.3472   42.3551  130.4075 C   0  0  0  0  0  0  0  0  0  0  0  0
   10.7351   41.9221  130.7567 C   0  0  0  0  0  0  0  0  0  0  0  0
    7.1704   46.6267  131.5230 C   0  0  0  0  0  0  0  0  0  0  0  0
    8.0059   47.6795  132.0529 N   0  0  0  0  0  0  0  0  0  0  0  0
    9.4159   47.6033  131.9446 C   0  0  0  0  0  0  0  0  0  0  0  0
   10.3031   48.6701  132.4790 C   0  0  0  0  0  0  0  0  0  0  0  0
    9.9899   46.6235  131.3877 O   0  0  0  0  0  0  0  0  0  0  0  0
    7.5523   48.4911  132.5132 H   0  0  0  0  0  0  0  0  0  0  0  0
    7.1319   46.6964  129.9964 C   0  0  0  0  0  0  0  0  0  0  0  0
    7.0412   48.1214  129.6087 C   0  0  0  0  0  0  0  0  0  0  0  0
    5.8053   48.7597  129.5678 C   0  0  0  0  0  0  0  0  0  0  0  0
    5.7234   50.0883  129.2066 C   0  0  0  0  0  0  0  0  0  0  0  0
    6.8502   50.8410  128.8721 C   0  0  0  0  0  0  0  0  0  0  0  0
    6.7076   52.1854  128.5130 O   0  0  0  0  0  0  0  0  0  0  0  0
    8.0720   50.2040  128.9141 C   0  0  0  0  0  0  0  0  0  0  0  0
    8.1447   48.8757  129.2763 C   0  0  0  0  0  0  0  0  0  0  0  0
    6.7507   52.9126  129.2413 H   0  0  0  0  0  0  0  0  0  0  0  0
 18 19  1  0  0  0
 19 20  1  0  0  0
 19  5  1  0  0  0
  5  1  1  0  0  0
  1  2  1  0  0  0
  2  3  2  0  0  0
  2 21  1  0  0  0
 21 27  1  0  0  0
 27 28  1  0  0  0
 28 29  2  0  0  0
 29 30  1  0  0  0
 30 31  2  0  0  0
 31 32  1  0  0  0
 31 33  1  0  0  0
 33 34  2  0  0  0
 21 22  1  0  0  0
 22 23  1  0  0  0
 23 24  1  0  0  0
 23 25  2  0  0  0
  5  6  1  0  0  0
  6  7  2  0  0  0
  6  8  1  0  0  0
  8 10  1  0  0  0
 10 13  1  0  0  0
 13 14  1  0  0  0
 14 15  1  0  0  0
 14 16  2  0  0  0
 10 11  1  0  0  0
 11 12  2  0  0  0
 34 28  1  0  0  0
  1  4  1  0  0  0
 32 35  1  0  0  0
 22 26  1  0  0  0
  8  9  1  0  0  0
 15 17  1  0  0  0
M  END
> <minimizedAffinity>
-3.65829

> <CNNscore>
0.2474374771

> <CNNaffinity>
6.8013334274

> <CNN_VS>
1.6829048395

> <CNNaffinity_variance>
0.4937973022

$$$$
[H]OC(=O)C([H])([H])[C@@]([H])(C([H])=O)N([H])C(=O)[C@@]([H])(N([H])C(=O)[C@@]([H])(N([H])C(=O)C([H])([H])[H])C([H])([H])c1c([H])c([H])c(O[H])c([H])c1[H])C([H])(C([H])([H])[H])C([H])([H])[H]


 35 35  0  0  0  0  0  0  0  0999 V2000
   10.4315   45.8248  131.7025 N   0  0  0  0  0  0  0  0  0  0  0  0
   11.5260   45.6180  132.5486 C   0  0  0  0  0  0  0  0  0  0  0  0
   12.6827   45.7496  132.0844 O   0  0  0  0  0  0  0  0  0  0  0  0
    9.4657   45.7240  132.0558 H   0  0  0  0  0  0  0  0  0  0  0  0
   10.5673   46.1929  130.2812 C   0  0  0  0  0  0  0  0  0  0  0  0
    9.5493   47.1941  129.9327 C   0  0  0  0  0  0  0  0  0  0  0  0
    9.8499   48.1504  129.1377 O   0  0  0  0  0  0  0  0  0  0  0  0
    8.2271   47.1580  130.4332 N   0  0  0  0  0  0  0  0  0  0  0  0
    7.8597   46.4185  131.0669 H   0  0  0  0  0  0  0  0  0  0  0  0
    7.2417   48.1792  130.0649 C   0  0  0  0  0  0  0  0  0  0  0  0
    6.6965   47.8660  128.7205 C   0  0  0  0  0  0  0  0  0  0  0  0
    5.5945   47.4420  128.5001 O   0  0  0  0  0  0  0  0  0  0  0  0
    7.8606   49.5617  130.0800 C   0  0  0  0  0  0  0  0  0  0  0  0
    6.8525   50.5782  129.7740 C   0  0  0  0  0  0  0  0  0  0  0  0
    6.9897   51.4339  128.6962 O   0  0  0  0  0  0  0  0  0  0  0  0
    5.8351   50.6893  130.4957 O   0  0  0  0  0  0  0  0  0  0  0  0
    7.1409   51.0787  127.7478 H   0  0  0  0  0  0  0  0  0  0  0  0
    9.1114   44.7512  128.8058 C   0  0  0  0  0  0  0  0  0  0  0  0
   10.4494   44.9447  129.4471 C   0  0  0  0  0  0  0  0  0  0  0  0
   11.5320   44.7926  128.4271 C   0  0  0  0  0  0  0  0  0  0  0  0
   11.3622   45.2491  133.9731 C   0  0  0  0  0  0  0  0  0  0  0  0
   10.1835   45.8463  134.5573 N   0  0  0  0  0  0  0  0  0  0  0  0
    9.8672   47.2047  134.3114 C   0  0  0  0  0  0  0  0  0  0  0  0
    8.6617   47.8485  134.8971 C   0  0  0  0  0  0  0  0  0  0  0  0
   10.5949   47.9372  133.5809 O   0  0  0  0  0  0  0  0  0  0  0  0
    9.5747   45.2604  135.1593 H   0  0  0  0  0  0  0  0  0  0  0  0
   11.3297   43.7305  134.1455 C   0  0  0  0  0  0  0  0  0  0  0  0
   10.3996   43.1784  133.1358 C   0  0  0  0  0  0  0  0  0  0  0  0
   10.8917   42.4861  132.0335 C   0  0  0  0  0  0  0  0  0  0  0  0
   10.0227   41.9719  131.0939 C   0  0  0  0  0  0  0  0  0  0  0  0
    8.6386   42.1171  131.1999 C   0  0  0  0  0  0  0  0  0  0  0  0
    7.8046   41.5747  130.2166 O   0  0  0  0  0  0  0  0  0  0  0  0
    8.1563   42.8038  132.2936 C   0  0  0  0  0  0  0  0  0  0  0  0
    9.0321   43.3144  133.2280 C   0  0  0  0  0  0  0  0  0  0  0  0
    7.4569   40.6108  130.3211 H   0  0  0  0  0  0  0  0  0  0  0  0
 18 19  1  0  0  0
 19 20  1  0  0  0
 19  5  1  0  0  0
  5  1  1  0  0  0
  1  2  1  0  0  0
  2  3  2  0  0  0
  2 21  1  0  0  0
 21 27  1  0  0  0
 27 28  1  0  0  0
 28 29  2  0  0  0
 29 30  1  0  0  0
 30 31  2  0  0  0
 31 32  1  0  0  0
 31 33  1  0  0  0
 33 34  2  0  0  0
 21 22  1  0  0  0
 22 23  1  0  0  0
 23 24  1  0  0  0
 23 25  2  0  0  0
  5  6  1  0  0  0
  6  7  2  0  0  0
  6  8  1  0  0  0
  8 10  1  0  0  0
 10 13  1  0  0  0
 13 14  1  0  0  0
 14 15  1  0  0  0
 14 16  2  0  0  0
 10 11  1  0  0  0
 11 12  2  0  0  0
 34 28  1  0  0  0
  1  4  1  0  0  0
 32 35  1  0  0  0
 22 26  1  0  0  0
  8  9  1  0  0  0
 15 17  1  0  0  0
M  END
> <minimizedAffinity>
-6.45730

> <CNNscore>
0.1782015115

> <CNNaffinity>
6.9394531250

> <CNN_VS>
1.2366210222

> <CNNaffinity_variance>
0.1993890107

$$$$
[H]OC(=O)C([H])([H])[C@@]([H])(C([H])=O)N([H])C(=O)[C@@]([H])(N([H])C(=O)[C@@]([H])(N([H])C(=O)C([H])([H])[H])C([H])([H])c1c([H])c([H])c(O[H])c([H])c1[H])C([H])(C([H])([H])[H])C([H])([H])[H]


 35 35  0  0  0  0  0  0  0  0999 V2000
    9.8426   44.8031  130.6841 N   0  0  0  0  0  0  0  0  0  0  0  0
   10.9174   44.2366  129.9908 C   0  0  0  0  0  0  0  0  0  0  0  0
   10.6797   43.4752  129.0241 O   0  0  0  0  0  0  0  0  0  0  0  0
   10.0063   45.4348  131.4852 H   0  0  0  0  0  0  0  0  0  0  0  0
    8.4326   44.5499  130.3351 C   0  0  0  0  0  0  0  0  0  0  0  0
    7.6687   45.8017  130.4342 C   0  0  0  0  0  0  0  0  0  0  0  0
    6.4776   45.7797  130.9007 O   0  0  0  0  0  0  0  0  0  0  0  0
    8.1874   47.0566  130.0388 N   0  0  0  0  0  0  0  0  0  0  0  0
    9.1486   47.2034  129.6673 H   0  0  0  0  0  0  0  0  0  0  0  0
    7.3910   48.2825  130.1493 C   0  0  0  0  0  0  0  0  0  0  0  0
    7.5809   49.0976  128.9236 C   0  0  0  0  0  0  0  0  0  0  0  0
    7.3871   48.7178  127.8006 O   0  0  0  0  0  0  0  0  0  0  0  0
    7.7799   49.0738  131.3809 C   0  0  0  0  0  0  0  0  0  0  0  0
    9.1432   49.5907  131.2490 C   0  0  0  0  0  0  0  0  0  0  0  0
    9.4097   50.9476  131.2747 O   0  0  0  0  0  0  0  0  0  0  0  0
   10.1031   48.7989  131.1085 O   0  0  0  0  0  0  0  0  0  0  0  0
    9.0967   51.5390  132.0497 H   0  0  0  0  0  0  0  0  0  0  0  0
    7.9948   42.0903  130.7005 C   0  0  0  0  0  0  0  0  0  0  0  0
    7.8952   43.4794  131.2477 C   0  0  0  0  0  0  0  0  0  0  0  0
    8.4573   43.5250  132.6325 C   0  0  0  0  0  0  0  0  0  0  0  0
   12.3249   44.5074  130.3616 C   0  0  0  0  0  0  0  0  0  0  0  0
   13.1831   44.6056  129.2036 N   0  0  0  0  0  0  0  0  0  0  0  0
   14.4665   44.0068  129.2054 C   0  0  0  0  0  0  0  0  0  0  0  0
   15.3730   44.0893  128.0298 C   0  0  0  0  0  0  0  0  0  0  0  0
   14.9046   43.3719  130.2077 O   0  0  0  0  0  0  0  0  0  0  0  0
   12.8402   45.1227  128.3720 H   0  0  0  0  0  0  0  0  0  0  0  0
   12.4335   45.7728  131.2125 C   0  0  0  0  0  0  0  0  0  0  0  0
   11.8792   45.4698  132.5504 C   0  0  0  0  0  0  0  0  0  0  0  0
   12.2636   44.3139  133.2233 C   0  0  0  0  0  0  0  0  0  0  0  0
   11.7459   44.0338  134.4707 C   0  0  0  0  0  0  0  0  0  0  0  0
   10.8318   44.8766  135.1051 C   0  0  0  0  0  0  0  0  0  0  0  0
   10.3393   44.5422  136.3709 O   0  0  0  0  0  0  0  0  0  0  0  0
   10.4542   46.0201  134.4342 C   0  0  0  0  0  0  0  0  0  0  0  0
   10.9768   46.2923  133.1877 C   0  0  0  0  0  0  0  0  0  0  0  0
   10.8375   44.8677  137.2117 H   0  0  0  0  0  0  0  0  0  0  0  0
 18 19  1  0  0  0
 19 20  1  0  0  0
 19  5  1  0  0  0
  5  1  1  0  0  0
  1  2  1  0  0  0
  2  3  2  0  0  0
  2 21  1  0  0  0
 21 27  1  0  0  0
 27 28  1  0  0  0
 28 29  2  0  0  0
 29 30  1  0  0  0
 30 31  2  0  0  0
 31 32  1  0  0  0
 31 33  1  0  0  0
 33 34  2  0  0  0
 21 22  1  0  0  0
 22 23  1  0  0  0
 23 24  1  0  0  0
 23 25  2  0  0  0
  5  6  1  0  0  0
  6  7  2  0  0  0
  6  8  1  0  0  0
  8 10  1  0  0  0
 10 13  1  0  0  0
 13 14  1  0  0  0
 14 15  1  0  0  0
 14 16  2  0  0  0
 10 11  1  0  0  0
 11 12  2  0  0  0
 34 28  1  0  0  0
  1  4  1  0  0  0
 32 35  1  0  0  0
 22 26  1  0  0  0
  8  9  1  0  0  0
 15 17  1  0  0  0
M  END
> <minimizedAffinity>
0.12350

> <CNNscore>
0.1705762446

> <CNNaffinity>
6.6670875549

> <CNN_VS>
1.1372467279

> <CNNaffinity_variance>
0.2811608911

$$$$
[H]OC(=O)C([H])([H])[C@@]([H])(C([H])=O)N([H])C(=O)[C@@]([H])(N([H])C(=O)[C@@]([H])(N([H])C(=O)C([H])([H])[H])C([H])([H])c1c([H])c([H])c(O[H])c([H])c1[H])C([H])(C([H])([H])[H])C([H])([H])[H]


 35 35  0  0  0  0  0  0  0  0999 V2000
    9.6293   45.9450  129.5500 N   0  0  0  0  0  0  0  0  0  0  0  0
    8.4054   46.5607  129.8323 C   0  0  0  0  0  0  0  0  0  0  0  0
    7.4601   45.8587  130.2619 O   0  0  0  0  0  0  0  0  0  0  0  0
   10.4274   46.4969  129.1949 H   0  0  0  0  0  0  0  0  0  0  0  0
    9.8687   44.5016  129.7327 C   0  0  0  0  0  0  0  0  0  0  0  0
   10.6525   44.2838  130.9567 C   0  0  0  0  0  0  0  0  0  0  0  0
   11.2682   43.1748  131.1237 O   0  0  0  0  0  0  0  0  0  0  0  0
   10.7711   45.2520  131.9807 N   0  0  0  0  0  0  0  0  0  0  0  0
   10.3361   46.1971  131.9476 H   0  0  0  0  0  0  0  0  0  0  0  0
   11.5593   44.9941  133.1897 C   0  0  0  0  0  0  0  0  0  0  0  0
   12.6123   43.9953  132.8795 C   0  0  0  0  0  0  0  0  0  0  0  0
   13.1102   43.2428  133.6723 O   0  0  0  0  0  0  0  0  0  0  0  0
   10.6768   44.5045  134.3193 C   0  0  0  0  0  0  0  0  0  0  0  0
    9.5880   43.6765  133.7975 C   0  0  0  0  0  0  0  0  0  0  0  0
    9.7681   42.3339  133.5184 O   0  0  0  0  0  0  0  0  0  0  0  0
    8.4599   44.1802  133.5930 O   0  0  0  0  0  0  0  0  0  0  0  0
   10.1285   41.6852  134.2239 H   0  0  0  0  0  0  0  0  0  0  0  0
    9.7326   43.0463  127.6739 C   0  0  0  0  0  0  0  0  0  0  0  0
   10.5640   43.9699  128.5073 C   0  0  0  0  0  0  0  0  0  0  0  0
   11.1695   45.0310  127.6453 C   0  0  0  0  0  0  0  0  0  0  0  0
    8.1911   48.0129  129.6403 C   0  0  0  0  0  0  0  0  0  0  0  0
    7.3461   48.2921  128.5021 N   0  0  0  0  0  0  0  0  0  0  0  0
    5.9458   48.0945  128.5791 C   0  0  0  0  0  0  0  0  0  0  0  0
    5.0492   48.3728  127.4262 C   0  0  0  0  0  0  0  0  0  0  0  0
    5.3890   47.6714  129.6329 O   0  0  0  0  0  0  0  0  0  0  0  0
    7.7856   48.6400  127.6291 H   0  0  0  0  0  0  0  0  0  0  0  0
    7.6116   48.6527  130.9020 C   0  0  0  0  0  0  0  0  0  0  0  0
    8.6035   48.4943  131.9884 C   0  0  0  0  0  0  0  0  0  0  0  0
    9.8251   49.1578  131.9248 C   0  0  0  0  0  0  0  0  0  0  0  0
   10.7480   49.0090  132.9391 C   0  0  0  0  0  0  0  0  0  0  0  0
   10.5076   48.2041  134.0538 C   0  0  0  0  0  0  0  0  0  0  0  0
   11.4802   48.0900  135.0526 O   0  0  0  0  0  0  0  0  0  0  0  0
    9.2960   47.5490  134.1119 C   0  0  0  0  0  0  0  0  0  0  0  0
    8.3793   47.7036  133.0937 C   0  0  0  0  0  0  0  0  0  0  0  0
   11.4752   48.7496  135.8438 H   0  0  0  0  0  0  0  0  0  0  0  0
 18 19  1  0  0  0
 19 20  1  0  0  0
 19  5  1  0  0  0
  5  1  1  0  0  0
  1  2  1  0  0  0
  2  3  2  0  0  0
  2 21  1  0  0  0
 21 27  1  0  0  0
 27 28  1  0  0  0
 28 29  2  0  0  0
 29 30  1  0  0  0
 30 31  2  0  0  0
 31 32  1  0  0  0
 31 33  1  0  0  0
 33 34  2  0  0  0
 21 22  1  0  0  0
 22 23  1  0  0  0
 23 24  1  0  0  0
 23 25  2  0  0  0
  5  6  1  0  0  0
  6  7  2  0  0  0
  6  8  1  0  0  0
  8 10  1  0  0  0
 10 13  1  0  0  0
 13 14  1  0  0  0
 14 15  1  0  0  0
 14 16  2  0  0  0
 10 11  1  0  0  0
 11 12  2  0  0  0
 34 28  1  0  0  0
  1  4  1  0  0  0
 32 35  1  0  0  0
 22 26  1  0  0  0
  8  9  1  0  0  0
 15 17  1  0  0  0
M  END
> <minimizedAffinity>
-1.23421

> <CNNscore>
0.1663223654

> <CNNaffinity>
6.6909613609

> <CNN_VS>
1.1128565073

> <CNNaffinity_variance>
0.5322939157

$$$$
[H]OC(=O)C([H])([H])[C@@]([H])(C([H])=O)N([H])C(=O)[C@@]([H])(N([H])C(=O)[C@@]([H])(N([H])C(=O)C([H])([H])[H])C([H])([H])c1c([H])c([H])c(O[H])c([H])c1[H])C([H])(C([H])([H])[H])C([H])([H])[H]


 35 35  0  0  0  0  0  0  0  0999 V2000
    9.0435   45.3971  130.7002 N   0  0  0  0  0  0  0  0  0  0  0  0
    9.4794   44.8177  131.8964 C   0  0  0  0  0  0  0  0  0  0  0  0
   10.7082   44.6443  132.0719 O   0  0  0  0  0  0  0  0  0  0  0  0
    8.0370   45.5532  130.5262 H   0  0  0  0  0  0  0  0  0  0  0  0
    9.9606   45.8184  129.6253 C   0  0  0  0  0  0  0  0  0  0  0  0
    9.4823   47.0767  129.0353 C   0  0  0  0  0  0  0  0  0  0  0  0
    9.9572   47.4695  127.9141 O   0  0  0  0  0  0  0  0  0  0  0  0
    8.5032   47.8937  129.6470 N   0  0  0  0  0  0  0  0  0  0  0  0
    8.0287   47.6678  130.5454 H   0  0  0  0  0  0  0  0  0  0  0  0
    8.0559   49.1451  129.0280 C   0  0  0  0  0  0  0  0  0  0  0  0
    7.7211   50.1221  130.0939 C   0  0  0  0  0  0  0  0  0  0  0  0
    6.8826   50.9783  130.0121 O   0  0  0  0  0  0  0  0  0  0  0  0
    6.8611   48.9089  128.1274 C   0  0  0  0  0  0  0  0  0  0  0  0
    5.9081   48.0003  128.7674 C   0  0  0  0  0  0  0  0  0  0  0  0
    6.1081   46.6319  128.7807 O   0  0  0  0  0  0  0  0  0  0  0  0
    4.8816   48.4567  129.3208 O   0  0  0  0  0  0  0  0  0  0  0  0
    6.9747   46.2220  129.1404 H   0  0  0  0  0  0  0  0  0  0  0  0
   11.4148   44.1045  128.4751 C   0  0  0  0  0  0  0  0  0  0  0  0
   10.0533   44.7106  128.6095 C   0  0  0  0  0  0  0  0  0  0  0  0
    9.0304   43.6351  128.7902 C   0  0  0  0  0  0  0  0  0  0  0  0
    8.5372   44.4035  132.9606 C   0  0  0  0  0  0  0  0  0  0  0  0
    8.5517   42.9746  133.1737 N   0  0  0  0  0  0  0  0  0  0  0  0
    9.6631   42.3496  133.7899 C   0  0  0  0  0  0  0  0  0  0  0  0
    9.7085   40.8820  134.0238 C   0  0  0  0  0  0  0  0  0  0  0  0
   10.6722   43.0096  134.1718 O   0  0  0  0  0  0  0  0  0  0  0  0
    7.7323   42.4171  132.8668 H   0  0  0  0  0  0  0  0  0  0  0  0
    8.8302   45.1388  134.2684 C   0  0  0  0  0  0  0  0  0  0  0  0
    9.2065   46.5299  133.9331 C   0  0  0  0  0  0  0  0  0  0  0  0
    8.3038   47.3620  133.2779 C   0  0  0  0  0  0  0  0  0  0  0  0
    8.6567   48.6586  132.9668 C   0  0  0  0  0  0  0  0  0  0  0  0
    9.9080   49.1880  133.2865 C   0  0  0  0  0  0  0  0  0  0  0  0
   10.2118   50.5104  132.9464 O   0  0  0  0  0  0  0  0  0  0  0  0
   10.7986   48.3596  133.9354 C   0  0  0  0  0  0  0  0  0  0  0  0
   10.4374   47.0649  134.2426 C   0  0  0  0  0  0  0  0  0  0  0  0
   10.0028   51.2669  133.6135 H   0  0  0  0  0  0  0  0  0  0  0  0
 18 19  1  0  0  0
 19 20  1  0  0  0
 19  5  1  0  0  0
  5  1  1  0  0  0
  1  2  1  0  0  0
  2  3  2  0  0  0
  2 21  1  0  0  0
 21 27  1  0  0  0
 27 28  1  0  0  0
 28 29  2  0  0  0
 29 30  1  0  0  0
 30 31  2  0  0  0
 31 32  1  0  0  0
 31 33  1  0  0  0
 33 34  2  0  0  0
 21 22  1  0  0  0
 22 23  1  0  0  0
 23 24  1  0  0  0
 23 25  2  0  0  0
  5  6  1  0  0  0
  6  7  2  0  0  0
  6  8  1  0  0  0
  8 10  1  0  0  0
 10 13  1  0  0  0
 13 14  1  0  0  0
 14 15  1  0  0  0
 14 16  2  0  0  0
 10 11  1  0  0  0
 11 12  2  0  0  0
 34 28  1  0  0  0
  1  4  1  0  0  0
 32 35  1  0  0  0
 22 26  1  0  0  0
  8  9  1  0  0  0
 15 17  1  0  0  0
M  END
> <minimizedAffinity>
-0.62647

> <CNNscore>
0.1575755179

> <CNNaffinity>
6.7079863548

> <CNN_VS>
1.0570144653

> <CNNaffinity_variance>
0.2285410464

$$$$
[H]OC(=O)C([H])([H])[C@@]([H])(C([H])=O)N([H])C(=O)[C@@]([H])(N([H])C(=O)[C@@]([H])(N([H])C(=O)C([H])([H])[H])C([H])([H])c1c([H])c([H])c(O[H])c([H])c1[H])C([H])(C([H])([H])[H])C([H])([H])[H]


 35 35  0  0  0  0  0  0  0  0999 V2000
    8.9111   44.7751  131.3494 N   0  0  0  0  0  0  0  0  0  0  0  0
    8.9428   43.3780  131.4102 C   0  0  0  0  0  0  0  0  0  0  0  0
    8.0756   42.7824  132.0915 O   0  0  0  0  0  0  0  0  0  0  0  0
    9.6122   45.2946  130.7960 H   0  0  0  0  0  0  0  0  0  0  0  0
    7.9031   45.5916  132.0502 C   0  0  0  0  0  0  0  0  0  0  0  0
    7.2198   46.4648  131.0853 C   0  0  0  0  0  0  0  0  0  0  0  0
    6.0711   46.1293  130.6327 O   0  0  0  0  0  0  0  0  0  0  0  0
    7.7692   47.6827  130.6217 N   0  0  0  0  0  0  0  0  0  0  0  0
    8.6830   48.0707  130.9344 H   0  0  0  0  0  0  0  0  0  0  0  0
    7.0574   48.5238  129.6545 C   0  0  0  0  0  0  0  0  0  0  0  0
    6.7446   47.7185  128.4477 C   0  0  0  0  0  0  0  0  0  0  0  0
    5.6461   47.5483  127.9925 O   0  0  0  0  0  0  0  0  0  0  0  0
    7.8796   49.7409  129.2845 C   0  0  0  0  0  0  0  0  0  0  0  0
    7.0569   50.9508  129.3369 C   0  0  0  0  0  0  0  0  0  0  0  0
    7.0341   51.8577  128.2931 O   0  0  0  0  0  0  0  0  0  0  0  0
    6.3508   51.1856  130.3441 O   0  0  0  0  0  0  0  0  0  0  0  0
    6.8153   51.5659  127.3363 H   0  0  0  0  0  0  0  0  0  0  0  0
    8.6973   45.6493  134.4462 C   0  0  0  0  0  0  0  0  0  0  0  0
    8.5886   46.3720  133.1405 C   0  0  0  0  0  0  0  0  0  0  0  0
    9.9229   46.9199  132.7468 C   0  0  0  0  0  0  0  0  0  0  0  0
    9.9663   42.5812  130.6964 C   0  0  0  0  0  0  0  0  0  0  0  0
   10.6141   43.3394  129.6510 N   0  0  0  0  0  0  0  0  0  0  0  0
    9.9101   43.6889  128.4730 C   0  0  0  0  0  0  0  0  0  0  0  0
   10.5478   44.4687  127.3794 C   0  0  0  0  0  0  0  0  0  0  0  0
    8.7035   43.3547  128.2932 O   0  0  0  0  0  0  0  0  0  0  0  0
   11.6037   43.6223  129.7813 H   0  0  0  0  0  0  0  0  0  0  0  0
   11.0046   42.0243  131.6705 C   0  0  0  0  0  0  0  0  0  0  0  0
   11.5868   43.1633  132.4140 C   0  0  0  0  0  0  0  0  0  0  0  0
   11.3958   43.2750  133.7880 C   0  0  0  0  0  0  0  0  0  0  0  0
   11.9400   44.3374  134.4790 C   0  0  0  0  0  0  0  0  0  0  0  0
   12.6919   45.3302  133.8489 C   0  0  0  0  0  0  0  0  0  0  0  0
   13.2199   46.3855  134.6001 O   0  0  0  0  0  0  0  0  0  0  0  0
   12.8781   45.2150  132.4879 C   0  0  0  0  0  0  0  0  0  0  0  0
   12.3307   44.1497  131.8050 C   0  0  0  0  0  0  0  0  0  0  0  0
   14.1580   46.2933  135.0154 H   0  0  0  0  0  0  0  0  0  0  0  0
 18 19  1  0  0  0
 19 20  1  0  0  0
 19  5  1  0  0  0
  5  1  1  0  0  0
  1  2  1  0  0  0
  2  3  2  0  0  0
  2 21  1  0  0  0
 21 27  1  0  0  0
 27 28  1  0  0  0
 28 29  2  0  0  0
 29 30  1  0  0  0
 30 31  2  0  0  0
 31 32  1  0  0  0
 31 33  1  0  0  0
 33 34  2  0  0  0
 21 22  1  0  0  0
 22 23  1  0  0  0
 23 24  1  0  0  0
 23 25  2  0  0  0
  5  6  1  0  0  0
  6  7  2  0  0  0
  6  8  1  0  0  0
  8 10  1  0  0  0
 10 13  1  0  0  0
 13 14  1  0  0  0
 14 15  1  0  0  0
 14 16  2  0  0  0
 10 11  1  0  0  0
 11 12  2  0  0  0
 34 28  1  0  0  0
  1  4  1  0  0  0
 32 35  1  0  0  0
 22 26  1  0  0  0
  8  9  1  0  0  0
 15 17  1  0  0  0
M  END
> <minimizedAffinity>
-5.76124

> <CNNscore>
0.1526632905

> <CNNaffinity>
6.7942719460

> <CNN_VS>
1.0372358561

> <CNNaffinity_variance>
0.1319153458

$$$$
[H]OC(=O)C([H])([H])[C@@]([H])(C([H])=O)N([H])C(=O)[C@@]([H])(N([H])C(=O)[C@@]([H])(N([H])C(=O)C([H])([H])[H])C([H])([H])c1c([H])c([H])c(O[H])c([H])c1[H])C([H])(C([H])([H])[H])C([H])([H])[H]


 35 35  0  0  0  0  0  0  0  0999 V2000
    8.6062   45.5478  129.0700 N   0  0  0  0  0  0  0  0  0  0  0  0
    9.9278   45.9092  128.7882 C   0  0  0  0  0  0  0  0  0  0  0  0
   10.1607   47.0634  128.3585 O   0  0  0  0  0  0  0  0  0  0  0  0
    8.3823   44.6038  129.4255 H   0  0  0  0  0  0  0  0  0  0  0  0
    7.4626   46.4602  128.8870 C   0  0  0  0  0  0  0  0  0  0  0  0
    7.9085   47.8496  129.0627 C   0  0  0  0  0  0  0  0  0  0  0  0
    7.8804   48.6529  128.0673 O   0  0  0  0  0  0  0  0  0  0  0  0
    8.3730   48.3617  130.2964 N   0  0  0  0  0  0  0  0  0  0  0  0
    8.4198   47.8124  131.1793 H   0  0  0  0  0  0  0  0  0  0  0  0
    8.8139   49.7536  130.4295 C   0  0  0  0  0  0  0  0  0  0  0  0
    9.9091   49.8231  131.4287 C   0  0  0  0  0  0  0  0  0  0  0  0
    9.8355   49.4451  132.5665 O   0  0  0  0  0  0  0  0  0  0  0  0
    7.6636   50.6512  130.8365 C   0  0  0  0  0  0  0  0  0  0  0  0
    6.7496   50.8555  129.7113 C   0  0  0  0  0  0  0  0  0  0  0  0
    5.6162   50.0800  129.5479 O   0  0  0  0  0  0  0  0  0  0  0  0
    6.9849   51.7498  128.8669 O   0  0  0  0  0  0  0  0  0  0  0  0
    4.9211   49.9859  130.2939 H   0  0  0  0  0  0  0  0  0  0  0  0
    6.8339   45.9965  131.2879 C   0  0  0  0  0  0  0  0  0  0  0  0
    6.3817   46.0797  129.8640 C   0  0  0  0  0  0  0  0  0  0  0  0
    5.1517   46.9243  129.7667 C   0  0  0  0  0  0  0  0  0  0  0  0
   11.0589   44.9736  128.9810 C   0  0  0  0  0  0  0  0  0  0  0  0
   11.7981   45.2559  130.1898 N   0  0  0  0  0  0  0  0  0  0  0  0
   11.1716   45.9034  131.2824 C   0  0  0  0  0  0  0  0  0  0  0  0
   11.9043   46.2075  132.5399 C   0  0  0  0  0  0  0  0  0  0  0  0
    9.9573   46.2549  131.2421 O   0  0  0  0  0  0  0  0  0  0  0  0
   12.7954   44.9746  130.2407 H   0  0  0  0  0  0  0  0  0  0  0  0
   10.5762   43.5230  128.9797 C   0  0  0  0  0  0  0  0  0  0  0  0
   10.2602   43.1481  130.3757 C   0  0  0  0  0  0  0  0  0  0  0  0
    8.9424   43.1567  130.8228 C   0  0  0  0  0  0  0  0  0  0  0  0
    8.6501   42.8063  132.1245 C   0  0  0  0  0  0  0  0  0  0  0  0
    9.6390   42.4343  133.0365 C   0  0  0  0  0  0  0  0  0  0  0  0
    9.2847   42.0887  134.3448 O   0  0  0  0  0  0  0  0  0  0  0  0
   10.9428   42.4276  132.5886 C   0  0  0  0  0  0  0  0  0  0  0  0
   11.2258   42.7791  131.2859 C   0  0  0  0  0  0  0  0  0  0  0  0
    9.0652   41.1075  134.5690 H   0  0  0  0  0  0  0  0  0  0  0  0
 18 19  1  0  0  0
 19 20  1  0  0  0
 19  5  1  0  0  0
  5  1  1  0  0  0
  1  2  1  0  0  0
  2  3  2  0  0  0
  2 21  1  0  0  0
 21 27  1  0  0  0
 27 28  1  0  0  0
 28 29  2  0  0  0
 29 30  1  0  0  0
 30 31  2  0  0  0
 31 32  1  0  0  0
 31 33  1  0  0  0
 33 34  2  0  0  0
 21 22  1  0  0  0
 22 23  1  0  0  0
 23 24  1  0  0  0
 23 25  2  0  0  0
  5  6  1  0  0  0
  6  7  2  0  0  0
  6  8  1  0  0  0
  8 10  1  0  0  0
 10 13  1  0  0  0
 13 14  1  0  0  0
 14 15  1  0  0  0
 14 16  2  0  0  0
 10 11  1  0  0  0
 11 12  2  0  0  0
 34 28  1  0  0  0
  1  4  1  0  0  0
 32 35  1  0  0  0
 22 26  1  0  0  0
  8  9  1  0  0  0
 15 17  1  0  0  0
M  END
> <minimizedAffinity>
-4.21051

> <CNNscore>
0.1415259838

> <CNNaffinity>
6.3192033768

> <CNN_VS>
0.8943314552

> <CNNaffinity_variance>
0.2001413405

$$$$
[H]c1nc2c(OC([H])([H])[H])c([H])c(-c3c(C([H])(C([H])([H])[H])C([H])([H])[H])c4c([H])c(C5([H])C([H])([H])C([H])([H])N(C([H])([H])C(=O)N([H])C([H])([H])[H])C([H])([H])C5([H])[H])c([H])c([H])c4n3[H])c([H])n2n1


 36 40  0  0  0  0  0  0  0  0999 V2000
    6.7920   52.2494  128.2125 C   0  0  0  0  0  0  0  0  0  0  0  0
    5.5253   51.7346  128.1581 C   0  0  0  0  0  0  0  0  0  0  0  0
    5.2766   50.4577  128.6647 C   0  0  0  0  0  0  0  0  0  0  0  0
    6.2688   49.6814  129.2253 C   0  0  0  0  0  0  0  0  0  0  0  0
    6.2876   48.4652  129.7674 N   0  0  0  0  0  0  0  0  0  0  0  0
    7.5485   48.1282  130.1942 C   0  0  0  0  0  0  0  0  0  0  0  0
    8.3224   49.2176  129.8833 C   0  0  0  0  0  0  0  0  0  0  0  0
    7.5505   50.2196  129.2719 C   0  0  0  0  0  0  0  0  0  0  0  0
    7.7961   51.4696  128.7778 C   0  0  0  0  0  0  0  0  0  0  0  0
    5.4200   47.8575  129.8547 H   0  0  0  0  0  0  0  0  0  0  0  0
    7.8151   46.8038  130.7316 C   0  0  0  0  0  0  0  0  0  0  0  0
    8.0365   46.6901  132.1389 C   0  0  0  0  0  0  0  0  0  0  0  0
    8.3336   45.5123  132.7605 C   0  0  0  0  0  0  0  0  0  0  0  0
    8.4168   44.3944  131.9637 C   0  0  0  0  0  0  0  0  0  0  0  0
    8.6870   43.1102  132.2545 N   0  0  0  0  0  0  0  0  0  0  0  0
    8.6507   42.4023  131.1114 C   0  0  0  0  0  0  0  0  0  0  0  0
    8.3548   43.2862  130.1405 N   0  0  0  0  0  0  0  0  0  0  0  0
    8.2126   44.4871  130.6445 N   0  0  0  0  0  0  0  0  0  0  0  0
    7.9172   45.6515  130.0138 C   0  0  0  0  0  0  0  0  0  0  0  0
    8.5455   45.4062  134.1135 O   0  0  0  0  0  0  0  0  0  0  0  0
    9.4804   46.2259  134.8132 C   0  0  0  0  0  0  0  0  0  0  0  0
    7.3781   54.9916  125.1434 N   0  0  0  0  0  0  0  0  0  0  0  0
    8.4629   54.8641  126.1122 C   0  0  0  0  0  0  0  0  0  0  0  0
    8.3428   53.5164  126.7636 C   0  0  0  0  0  0  0  0  0  0  0  0
    7.1174   53.6087  127.6666 C   0  0  0  0  0  0  0  0  0  0  0  0
    5.9707   54.3434  127.1081 C   0  0  0  0  0  0  0  0  0  0  0  0
    6.1105   55.1102  125.8625 C   0  0  0  0  0  0  0  0  0  0  0  0
    7.2589   53.7732  124.3558 C   0  0  0  0  0  0  0  0  0  0  0  0
    4.2225   54.0633  121.9979 C   0  0  0  0  0  0  0  0  0  0  0  0
    5.0204   53.7686  123.1939 N   0  0  0  0  0  0  0  0  0  0  0  0
    6.4013   54.0432  123.1854 C   0  0  0  0  0  0  0  0  0  0  0  0
    6.9048   54.5400  122.1370 O   0  0  0  0  0  0  0  0  0  0  0  0
    4.5309   53.3597  124.0497 H   0  0  0  0  0  0  0  0  0  0  0  0
    9.7437   49.3342  130.1556 C   0  0  0  0  0  0  0  0  0  0  0  0
   10.2336   49.3330  131.5617 C   0  0  0  0  0  0  0  0  0  0  0  0
   10.3599   48.0003  129.6268 C   0  0  0  0  0  0  0  0  0  0  0  0
 29 30  1  0  0  0
 30 31  1  0  0  0
 31 32  2  0  0  0
 31 28  1  0  0  0
 28 22  1  0  0  0
 22 23  1  0  0  0
 23 24  1  0  0  0
 24 25  1  0  0  0
 25 26  1  0  0  0
 26 27  1  0  0  0
 25  1  1  0  0  0
  1  2  2  0  0  0
  2  3  1  0  0  0
  3  4  2  0  0  0
  4  5  1  0  0  0
  5  6  1  0  0  0
  6  7  2  0  0  0
  7 34  1  0  0  0
 34 35  1  0  0  0
 34 36  1  0  0  0
  7  8  1  0  0  0
  8  9  2  0  0  0
  6 11  1  0  0  0
 11 12  1  0  0  0
 12 13  2  0  0  0
 13 20  1  0  0  0
 20 21  1  0  0  0
 13 14  1  0  0  0
 14 15  2  0  0  0
 15 16  1  0  0  0
 16 17  2  0  0  0
 17 18  1  0  0  0
 18 19  1  0  0  0
 27 22  1  0  0  0
  9  1  1  0  0  0
 19 11  2  0  0  0
  8  4  1  0  0  0
 18 14  1  0  0  0
 30 33  1  0  0  0
  5 10  1  0  0  0
M  END
> <minimizedAffinity>
6.05565

> <CNNscore>
0.2548223138

> <CNNaffinity>
7.2746591568

> <CNN_VS>
1.8537454605

> <CNNaffinity_variance>
0.1947892457

$$$$
[H]c1nc2c(OC([H])([H])[H])c([H])c(-c3c(C([H])(C([H])([H])[H])C([H])([H])[H])c4c([H])c(C5([H])C([H])([H])C([H])([H])N(C([H])([H])C(=O)N([H])C([H])([H])[H])C([H])([H])C5([H])[H])c([H])c([H])c4n3[H])c([H])n2n1


 36 40  0  0  0  0  0  0  0  0999 V2000
    6.8003   52.1246  128.3039 C   0  0  0  0  0  0  0  0  0  0  0  0
    5.5756   51.5299  128.1663 C   0  0  0  0  0  0  0  0  0  0  0  0
    5.3859   50.2256  128.6266 C   0  0  0  0  0  0  0  0  0  0  0  0
    6.3960   49.5004  129.2225 C   0  0  0  0  0  0  0  0  0  0  0  0
    6.4669   48.2732  129.7348 N   0  0  0  0  0  0  0  0  0  0  0  0
    7.7226   48.0076  130.2228 C   0  0  0  0  0  0  0  0  0  0  0  0
    8.4375   49.1536  129.9826 C   0  0  0  0  0  0  0  0  0  0  0  0
    7.6345   50.1198  129.3538 C   0  0  0  0  0  0  0  0  0  0  0  0
    7.8223   51.3967  128.9051 C   0  0  0  0  0  0  0  0  0  0  0  0
    5.6384   47.6077  129.7585 H   0  0  0  0  0  0  0  0  0  0  0  0
    8.0477   46.6888  130.7415 C   0  0  0  0  0  0  0  0  0  0  0  0
    8.1937   45.6225  129.8013 C   0  0  0  0  0  0  0  0  0  0  0  0
    8.4596   44.3336  130.1615 C   0  0  0  0  0  0  0  0  0  0  0  0
    8.5885   44.0798  131.5070 C   0  0  0  0  0  0  0  0  0  0  0  0
    8.8424   42.9442  132.1799 N   0  0  0  0  0  0  0  0  0  0  0  0
    8.8649   43.2290  133.4943 C   0  0  0  0  0  0  0  0  0  0  0  0
    8.6211   44.5492  133.5889 N   0  0  0  0  0  0  0  0  0  0  0  0
    8.4534   45.0689  132.3980 N   0  0  0  0  0  0  0  0  0  0  0  0
    8.1884   46.3543  132.0536 C   0  0  0  0  0  0  0  0  0  0  0  0
    8.5997   43.3109  129.2552 O   0  0  0  0  0  0  0  0  0  0  0  0
    9.6379   43.2854  128.2770 C   0  0  0  0  0  0  0  0  0  0  0  0
    7.3110   54.9955  125.3408 N   0  0  0  0  0  0  0  0  0  0  0  0
    8.3758   54.8958  126.3347 C   0  0  0  0  0  0  0  0  0  0  0  0
    8.3145   53.5227  126.9395 C   0  0  0  0  0  0  0  0  0  0  0  0
    7.0630   53.5173  127.8107 C   0  0  0  0  0  0  0  0  0  0  0  0
    5.8918   54.2057  127.2442 C   0  0  0  0  0  0  0  0  0  0  0  0
    6.0206   55.0200  126.0279 C   0  0  0  0  0  0  0  0  0  0  0  0
    7.2805   53.7991  124.5120 C   0  0  0  0  0  0  0  0  0  0  0  0
    4.3710   54.0547  121.9955 C   0  0  0  0  0  0  0  0  0  0  0  0
    5.1119   53.7504  123.2252 N   0  0  0  0  0  0  0  0  0  0  0  0
    6.4795   54.0758  123.3035 C   0  0  0  0  0  0  0  0  0  0  0  0
    7.0211   54.6248  122.3011 O   0  0  0  0  0  0  0  0  0  0  0  0
    4.5918   53.2959  124.0390 H   0  0  0  0  0  0  0  0  0  0  0  0
    9.8310   49.3553  130.3365 C   0  0  0  0  0  0  0  0  0  0  0  0
   10.2504   49.3016  131.7643 C   0  0  0  0  0  0  0  0  0  0  0  0
   10.5710   48.1049  129.7640 C   0  0  0  0  0  0  0  0  0  0  0  0
 29 30  1  0  0  0
 30 31  1  0  0  0
 31 32  2  0  0  0
 31 28  1  0  0  0
 28 22  1  0  0  0
 22 23  1  0  0  0
 23 24  1  0  0  0
 24 25  1  0  0  0
 25 26  1  0  0  0
 26 27  1  0  0  0
 25  1  1  0  0  0
  1  2  2  0  0  0
  2  3  1  0  0  0
  3  4  2  0  0  0
  4  5  1  0  0  0
  5  6  1  0  0  0
  6  7  2  0  0  0
  7 34  1  0  0  0
 34 35  1  0  0  0
 34 36  1  0  0  0
  7  8  1  0  0  0
  8  9  2  0  0  0
  6 11  1  0  0  0
 11 12  1  0  0  0
 12 13  2  0  0  0
 13 20  1  0  0  0
 20 21  1  0  0  0
 13 14  1  0  0  0
 14 15  2  0  0  0
 15 16  1  0  0  0
 16 17  2  0  0  0
 17 18  1  0  0  0
 18 19  1  0  0  0
 27 22  1  0  0  0
  9  1  1  0  0  0
 19 11  2  0  0  0
  8  4  1  0  0  0
 18 14  1  0  0  0
 30 33  1  0  0  0
  5 10  1  0  0  0
M  END
> <minimizedAffinity>
6.24645

> <CNNscore>
0.2469486892

> <CNNaffinity>
7.2907752991

> <CNN_VS>
1.8004473448

> <CNNaffinity_variance>
0.3192369342

$$$$
[H]c1nc2c(OC([H])([H])[H])c([H])c(-c3c(C([H])(C([H])([H])[H])C([H])([H])[H])c4c([H])c(C5([H])C([H])([H])C([H])([H])N(C([H])([H])C(=O)N([H])C([H])([H])[H])C([H])([H])C5([H])[H])c([H])c([H])c4n3[H])c([H])n2n1


 36 40  0  0  0  0  0  0  0  0999 V2000
    7.1093   51.3289  128.4098 C   0  0  0  0  0  0  0  0  0  0  0  0
    6.7552   50.3902  127.4792 C   0  0  0  0  0  0  0  0  0  0  0  0
    6.9929   49.0388  127.7366 C   0  0  0  0  0  0  0  0  0  0  0  0
    7.5787   48.6036  128.9066 C   0  0  0  0  0  0  0  0  0  0  0  0
    7.9016   47.4017  129.3806 N   0  0  0  0  0  0  0  0  0  0  0  0
    8.4765   47.4934  130.6242 C   0  0  0  0  0  0  0  0  0  0  0  0
    8.4925   48.8372  130.9005 C   0  0  0  0  0  0  0  0  0  0  0  0
    7.9329   49.5709  129.8412 C   0  0  0  0  0  0  0  0  0  0  0  0
    7.7003   50.8941  129.5920 C   0  0  0  0  0  0  0  0  0  0  0  0
    7.7179   46.5012  128.8469 H   0  0  0  0  0  0  0  0  0  0  0  0
    8.9929   46.3066  131.2866 C   0  0  0  0  0  0  0  0  0  0  0  0
   10.3946   46.0468  131.1866 C   0  0  0  0  0  0  0  0  0  0  0  0
   10.9964   44.9491  131.7296 C   0  0  0  0  0  0  0  0  0  0  0  0
   10.1845   44.0658  132.4020 C   0  0  0  0  0  0  0  0  0  0  0  0
   10.4548   42.9121  133.0365 N   0  0  0  0  0  0  0  0  0  0  0  0
    9.3038   42.4241  133.5328 C   0  0  0  0  0  0  0  0  0  0  0  0
    8.3492   43.3060  133.1830 N   0  0  0  0  0  0  0  0  0  0  0  0
    8.8704   44.2967  132.5023 N   0  0  0  0  0  0  0  0  0  0  0  0
    8.2592   45.3833  131.9668 C   0  0  0  0  0  0  0  0  0  0  0  0
   12.3442   44.7024  131.6321 O   0  0  0  0  0  0  0  0  0  0  0  0
   12.9787   44.3681  130.3988 C   0  0  0  0  0  0  0  0  0  0  0  0
    7.3040   54.8119  126.1486 N   0  0  0  0  0  0  0  0  0  0  0  0
    7.8939   54.8734  127.4826 C   0  0  0  0  0  0  0  0  0  0  0  0
    8.2317   53.4717  127.9022 C   0  0  0  0  0  0  0  0  0  0  0  0
    6.8928   52.7952  128.1761 C   0  0  0  0  0  0  0  0  0  0  0  0
    5.8121   53.1195  127.2307 C   0  0  0  0  0  0  0  0  0  0  0  0
    5.9827   54.1925  126.2415 C   0  0  0  0  0  0  0  0  0  0  0  0
    8.0818   53.9275  125.2929 C   0  0  0  0  0  0  0  0  0  0  0  0
    6.4388   54.2217  121.8176 C   0  0  0  0  0  0  0  0  0  0  0  0
    6.6470   53.8439  123.2204 N   0  0  0  0  0  0  0  0  0  0  0  0
    7.8140   54.2705  123.8826 C   0  0  0  0  0  0  0  0  0  0  0  0
    8.6450   54.9712  123.2362 O   0  0  0  0  0  0  0  0  0  0  0  0
    5.9005   53.2598  123.7111 H   0  0  0  0  0  0  0  0  0  0  0  0
    9.0046   49.4298  132.1230 C   0  0  0  0  0  0  0  0  0  0  0  0
    8.9496   48.6650  133.3994 C   0  0  0  0  0  0  0  0  0  0  0  0
   10.5476   49.5251  131.9019 C   0  0  0  0  0  0  0  0  0  0  0  0
 29 30  1  0  0  0
 30 31  1  0  0  0
 31 32  2  0  0  0
 31 28  1  0  0  0
 28 22  1  0  0  0
 22 23  1  0  0  0
 23 24  1  0  0  0
 24 25  1  0  0  0
 25 26  1  0  0  0
 26 27  1  0  0  0
 25  1  1  0  0  0
  1  2  2  0  0  0
  2  3  1  0  0  0
  3  4  2  0  0  0
  4  5  1  0  0  0
  5  6  1  0  0  0
  6  7  2  0  0  0
  7 34  1  0  0  0
 34 35  1  0  0  0
 34 36  1  0  0  0
  7  8  1  0  0  0
  8  9  2  0  0  0
  6 11  1  0  0  0
 11 12  1  0  0  0
 12 13  2  0  0  0
 13 20  1  0  0  0
 20 21  1  0  0  0
 13 14  1  0  0  0
 14 15  2  0  0  0
 15 16  1  0  0  0
 16 17  2  0  0  0
 17 18  1  0  0  0
 18 19  1  0  0  0
 27 22  1  0  0  0
  9  1  1  0  0  0
 19 11  2  0  0  0
  8  4  1  0  0  0
 18 14  1  0  0  0
 30 33  1  0  0  0
  5 10  1  0  0  0
M  END
> <minimizedAffinity>
7.78405

> <CNNscore>
0.2133183628

> <CNNaffinity>
7.1444258690

> <CNN_VS>
1.5240372419

> <CNNaffinity_variance>
0.4161980748

$$$$
[H]c1nc2c(OC([H])([H])[H])c([H])c(-c3c(C([H])(C([H])([H])[H])C([H])([H])[H])c4c([H])c(C5([H])C([H])([H])C([H])([H])N(C([H])([H])C(=O)N([H])C([H])([H])[H])C([H])([H])C5([H])[H])c([H])c([H])c4n3[H])c([H])n2n1


 36 40  0  0  0  0  0  0  0  0999 V2000
    8.6219   48.0569  132.0646 C   0  0  0  0  0  0  0  0  0  0  0  0
    9.4513   49.0702  132.4618 C   0  0  0  0  0  0  0  0  0  0  0  0
    9.3966   50.3031  131.8092 C   0  0  0  0  0  0  0  0  0  0  0  0
    8.5292   50.5462  130.7651 C   0  0  0  0  0  0  0  0  0  0  0  0
    8.2880   51.6089  129.9996 N   0  0  0  0  0  0  0  0  0  0  0  0
    7.3060   51.3465  129.0764 C   0  0  0  0  0  0  0  0  0  0  0  0
    6.9452   50.0444  129.3144 C   0  0  0  0  0  0  0  0  0  0  0  0
    7.6938   49.5052  130.3738 C   0  0  0  0  0  0  0  0  0  0  0  0
    7.7448   48.2980  131.0118 C   0  0  0  0  0  0  0  0  0  0  0  0
    8.7988   52.5336  130.1163 H   0  0  0  0  0  0  0  0  0  0  0  0
    6.9515   52.3397  128.0754 C   0  0  0  0  0  0  0  0  0  0  0  0
    8.0161   52.9845  127.3731 C   0  0  0  0  0  0  0  0  0  0  0  0
    7.8188   53.9594  126.4391 C   0  0  0  0  0  0  0  0  0  0  0  0
    6.5160   54.3177  126.1824 C   0  0  0  0  0  0  0  0  0  0  0  0
    5.9897   55.2239  125.3407 N   0  0  0  0  0  0  0  0  0  0  0  0
    4.6513   55.1918  125.4696 C   0  0  0  0  0  0  0  0  0  0  0  0
    4.3936   54.2532  126.3992 N   0  0  0  0  0  0  0  0  0  0  0  0
    5.5099   53.7225  126.8335 N   0  0  0  0  0  0  0  0  0  0  0  0
    5.6920   52.7525  127.7647 C   0  0  0  0  0  0  0  0  0  0  0  0
    8.8443   54.5771  125.7656 O   0  0  0  0  0  0  0  0  0  0  0  0
    9.0710   54.3911  124.3693 C   0  0  0  0  0  0  0  0  0  0  0  0
   10.1172   44.2187  132.6264 N   0  0  0  0  0  0  0  0  0  0  0  0
    8.6827   44.3233  132.3754 C   0  0  0  0  0  0  0  0  0  0  0  0
    8.4323   45.6245  131.6687 C   0  0  0  0  0  0  0  0  0  0  0  0
    8.6523   46.7072  132.7197 C   0  0  0  0  0  0  0  0  0  0  0  0
    9.7864   46.4861  133.6317 C   0  0  0  0  0  0  0  0  0  0  0  0
   10.4940   45.1983  133.6443 C   0  0  0  0  0  0  0  0  0  0  0  0
   10.8666   44.5956  131.4366 C   0  0  0  0  0  0  0  0  0  0  0  0
    9.8731   43.1832  127.9896 C   0  0  0  0  0  0  0  0  0  0  0  0
   10.2196   44.1473  129.0404 N   0  0  0  0  0  0  0  0  0  0  0  0
   10.5084   43.6791  130.3365 C   0  0  0  0  0  0  0  0  0  0  0  0
   10.4590   42.4328  130.5460 O   0  0  0  0  0  0  0  0  0  0  0  0
   10.2540   45.1853  128.7940 H   0  0  0  0  0  0  0  0  0  0  0  0
    5.9223   49.3172  128.5846 C   0  0  0  0  0  0  0  0  0  0  0  0
    5.9611   47.8295  128.5344 C   0  0  0  0  0  0  0  0  0  0  0  0
    4.6109   49.5512  129.3996 C   0  0  0  0  0  0  0  0  0  0  0  0
 29 30  1  0  0  0
 30 31  1  0  0  0
 31 32  2  0  0  0
 31 28  1  0  0  0
 28 22  1  0  0  0
 22 23  1  0  0  0
 23 24  1  0  0  0
 24 25  1  0  0  0
 25 26  1  0  0  0
 26 27  1  0  0  0
 25  1  1  0  0  0
  1  2  2  0  0  0
  2  3  1  0  0  0
  3  4  2  0  0  0
  4  5  1  0  0  0
  5  6  1  0  0  0
  6  7  2  0  0  0
  7 34  1  0  0  0
 34 35  1  0  0  0
 34 36  1  0  0  0
  7  8  1  0  0  0
  8  9  2  0  0  0
  6 11  1  0  0  0
 11 12  1  0  0  0
 12 13  2  0  0  0
 13 20  1  0  0  0
 20 21  1  0  0  0
 13 14  1  0  0  0
 14 15  2  0  0  0
 15 16  1  0  0  0
 16 17  2  0  0  0
 17 18  1  0  0  0
 18 19  1  0  0  0
 27 22  1  0  0  0
  9  1  1  0  0  0
 19 11  2  0  0  0
  8  4  1  0  0  0
 18 14  1  0  0  0
 30 33  1  0  0  0
  5 10  1  0  0  0
M  END
> <minimizedAffinity>
8.64381

> <CNNscore>
0.1985046715

> <CNNaffinity>
7.4700422287

> <CNN_VS>
1.4828382730

> <CNNaffinity_variance>
0.5081523061

$$$$
[H]c1nc2c(OC([H])([H])[H])c([H])c(-c3c(C([H])(C([H])([H])[H])C([H])([H])[H])c4c([H])c(C5([H])C([H])([H])C([H])([H])N(C([H])([H])C(=O)N([H])C([H])([H])[H])C([H])([H])C5([H])[H])c([H])c([H])c4n3[H])c([H])n2n1


 36 40  0  0  0  0  0  0  0  0999 V2000
    8.3604   47.9866  131.9912 C   0  0  0  0  0  0  0  0  0  0  0  0
    9.2184   48.9459  132.4563 C   0  0  0  0  0  0  0  0  0  0  0  0
    9.2779   50.1865  131.8189 C   0  0  0  0  0  0  0  0  0  0  0  0
    8.4973   50.4904  130.7237 C   0  0  0  0  0  0  0  0  0  0  0  0
    8.3688   51.5731  129.9590 N   0  0  0  0  0  0  0  0  0  0  0  0
    7.4368   51.3778  128.9696 C   0  0  0  0  0  0  0  0  0  0  0  0
    6.9870   50.0965  129.1650 C   0  0  0  0  0  0  0  0  0  0  0  0
    7.6313   49.5038  130.2637 C   0  0  0  0  0  0  0  0  0  0  0  0
    7.5704   48.2891  130.8866 C   0  0  0  0  0  0  0  0  0  0  0  0
    8.9230   52.4652  130.1220 H   0  0  0  0  0  0  0  0  0  0  0  0
    7.2072   52.4001  127.9616 C   0  0  0  0  0  0  0  0  0  0  0  0
    5.8954   52.9596  127.8696 C   0  0  0  0  0  0  0  0  0  0  0  0
    5.5409   53.8967  126.9433 C   0  0  0  0  0  0  0  0  0  0  0  0
    6.5197   54.3036  126.0670 C   0  0  0  0  0  0  0  0  0  0  0  0
    6.4995   55.1897  125.0565 N   0  0  0  0  0  0  0  0  0  0  0  0
    7.7241   55.2238  124.5010 C   0  0  0  0  0  0  0  0  0  0  0  0
    8.4687   54.3453  125.1978 N   0  0  0  0  0  0  0  0  0  0  0  0
    7.7518   53.7871  126.1416 N   0  0  0  0  0  0  0  0  0  0  0  0
    8.1174   52.8546  127.0570 C   0  0  0  0  0  0  0  0  0  0  0  0
    4.2792   54.4328  126.8577 O   0  0  0  0  0  0  0  0  0  0  0  0
    3.5831   54.5703  125.6199 C   0  0  0  0  0  0  0  0  0  0  0  0
    9.7211   44.1370  132.7731 N   0  0  0  0  0  0  0  0  0  0  0  0
    8.3549   44.2501  132.2710 C   0  0  0  0  0  0  0  0  0  0  0  0
    8.2382   45.5588  131.5438 C   0  0  0  0  0  0  0  0  0  0  0  0
    8.2697   46.6308  132.6279 C   0  0  0  0  0  0  0  0  0  0  0  0
    9.2220   46.3963  133.7255 C   0  0  0  0  0  0  0  0  0  0  0  0
    9.9126   45.1055  133.8516 C   0  0  0  0  0  0  0  0  0  0  0  0
   10.6720   44.5215  131.7401 C   0  0  0  0  0  0  0  0  0  0  0  0
   10.0926   43.2174  128.1586 C   0  0  0  0  0  0  0  0  0  0  0  0
   10.2618   44.1495  129.2796 N   0  0  0  0  0  0  0  0  0  0  0  0
   10.4907   43.6385  130.5715 C   0  0  0  0  0  0  0  0  0  0  0  0
   10.5436   42.3833  130.7164 O   0  0  0  0  0  0  0  0  0  0  0  0
   10.2166   45.1983  129.0867 H   0  0  0  0  0  0  0  0  0  0  0  0
    5.9748   49.4375  128.3595 C   0  0  0  0  0  0  0  0  0  0  0  0
    6.0167   47.9604  128.1756 C   0  0  0  0  0  0  0  0  0  0  0  0
    4.6526   49.5963  129.1752 C   0  0  0  0  0  0  0  0  0  0  0  0
 29 30  1  0  0  0
 30 31  1  0  0  0
 31 32  2  0  0  0
 31 28  1  0  0  0
 28 22  1  0  0  0
 22 23  1  0  0  0
 23 24  1  0  0  0
 24 25  1  0  0  0
 25 26  1  0  0  0
 26 27  1  0  0  0
 25  1  1  0  0  0
  1  2  2  0  0  0
  2  3  1  0  0  0
  3  4  2  0  0  0
  4  5  1  0  0  0
  5  6  1  0  0  0
  6  7  2  0  0  0
  7 34  1  0  0  0
 34 35  1  0  0  0
 34 36  1  0  0  0
  7  8  1  0  0  0
  8  9  2  0  0  0
  6 11  1  0  0  0
 11 12  1  0  0  0
 12 13  2  0  0  0
 13 20  1  0  0  0
 20 21  1  0  0  0
 13 14  1  0  0  0
 14 15  2  0  0  0
 15 16  1  0  0  0
 16 17  2  0  0  0
 17 18  1  0  0  0
 18 19  1  0  0  0
 27 22  1  0  0  0
  9  1  1  0  0  0
 19 11  2  0  0  0
  8  4  1  0  0  0
 18 14  1  0  0  0
 30 33  1  0  0  0
  5 10  1  0  0  0
M  END
> <minimizedAffinity>
10.65650

> <CNNscore>
0.1982115805

> <CNNaffinity>
7.4010252953

> <CNN_VS>
1.4669688940

> <CNNaffinity_variance>
0.5154541135

$$$$
[H]c1nc2c(OC([H])([H])[H])c([H])c(-c3c(C([H])(C([H])([H])[H])C([H])([H])[H])c4c([H])c(C5([H])C([H])([H])C([H])([H])N(C([H])([H])C(=O)N([H])C([H])([H])[H])C([H])([H])C5([H])[H])c([H])c([H])c4n3[H])c([H])n2n1


 36 40  0  0  0  0  0  0  0  0999 V2000
    9.3562   44.1132  130.4353 C   0  0  0  0  0  0  0  0  0  0  0  0
    8.5853   43.8695  129.3313 C   0  0  0  0  0  0  0  0  0  0  0  0
    7.9876   44.9362  128.6575 C   0  0  0  0  0  0  0  0  0  0  0  0
    8.1433   46.2446  129.0641 C   0  0  0  0  0  0  0  0  0  0  0  0
    7.6922   47.4097  128.6032 N   0  0  0  0  0  0  0  0  0  0  0  0
    8.1366   48.4567  129.3725 C   0  0  0  0  0  0  0  0  0  0  0  0
    8.8997   47.8694  130.3498 C   0  0  0  0  0  0  0  0  0  0  0  0
    8.9294   46.4742  130.1883 C   0  0  0  0  0  0  0  0  0  0  0  0
    9.5164   45.4320  130.8488 C   0  0  0  0  0  0  0  0  0  0  0  0
    7.0755   47.4910  127.7414 H   0  0  0  0  0  0  0  0  0  0  0  0
    7.6851   49.8124  129.1035 C   0  0  0  0  0  0  0  0  0  0  0  0
    6.7724   50.4047  130.0301 C   0  0  0  0  0  0  0  0  0  0  0  0
    6.2453   51.6533  129.8722 C   0  0  0  0  0  0  0  0  0  0  0  0
    6.6322   52.3528  128.7530 C   0  0  0  0  0  0  0  0  0  0  0  0
    6.3034   53.5784  128.3096 N   0  0  0  0  0  0  0  0  0  0  0  0
    6.9548   53.7972  127.1534 C   0  0  0  0  0  0  0  0  0  0  0  0
    7.6738   52.6837  126.9197 N   0  0  0  0  0  0  0  0  0  0  0  0
    7.4854   51.8095  127.8771 N   0  0  0  0  0  0  0  0  0  0  0  0
    8.0164   50.5693  128.0215 C   0  0  0  0  0  0  0  0  0  0  0  0
    5.3685   52.2201  130.7648 O   0  0  0  0  0  0  0  0  0  0  0  0
    4.4027   51.4568  131.4861 C   0  0  0  0  0  0  0  0  0  0  0  0
   11.7927   42.5900  133.4396 N   0  0  0  0  0  0  0  0  0  0  0  0
   12.0719   42.1264  132.0837 C   0  0  0  0  0  0  0  0  0  0  0  0
   11.5227   43.1446  131.1263 C   0  0  0  0  0  0  0  0  0  0  0  0
   10.0066   43.0024  131.2066 C   0  0  0  0  0  0  0  0  0  0  0  0
    9.4599   42.7811  132.5552 C   0  0  0  0  0  0  0  0  0  0  0  0
   10.3544   42.4987  133.6862 C   0  0  0  0  0  0  0  0  0  0  0  0
   12.1135   44.0043  133.5656 C   0  0  0  0  0  0  0  0  0  0  0  0
    9.4924   46.2827  135.2396 C   0  0  0  0  0  0  0  0  0  0  0  0
   10.3866   45.7221  134.2198 N   0  0  0  0  0  0  0  0  0  0  0  0
   11.1955   44.6168  134.5457 C   0  0  0  0  0  0  0  0  0  0  0  0
   11.1177   44.1444  135.7163 O   0  0  0  0  0  0  0  0  0  0  0  0
   10.3959   46.1618  133.2473 H   0  0  0  0  0  0  0  0  0  0  0  0
    9.5954   48.5841  131.4048 C   0  0  0  0  0  0  0  0  0  0  0  0
    9.7459   50.0634  131.3262 C   0  0  0  0  0  0  0  0  0  0  0  0
    8.6693   48.4473  132.6547 C   0  0  0  0  0  0  0  0  0  0  0  0
 29 30  1  0  0  0
 30 31  1  0  0  0
 31 32  2  0  0  0
 31 28  1  0  0  0
 28 22  1  0  0  0
 22 23  1  0  0  0
 23 24  1  0  0  0
 24 25  1  0  0  0
 25 26  1  0  0  0
 26 27  1  0  0  0
 25  1  1  0  0  0
  1  2  2  0  0  0
  2  3  1  0  0  0
  3  4  2  0  0  0
  4  5  1  0  0  0
  5  6  1  0  0  0
  6  7  2  0  0  0
  7 34  1  0  0  0
 34 35  1  0  0  0
 34 36  1  0  0  0
  7  8  1  0  0  0
  8  9  2  0  0  0
  6 11  1  0  0  0
 11 12  1  0  0  0
 12 13  2  0  0  0
 13 20  1  0  0  0
 20 21  1  0  0  0
 13 14  1  0  0  0
 14 15  2  0  0  0
 15 16  1  0  0  0
 16 17  2  0  0  0
 17 18  1  0  0  0
 18 19  1  0  0  0
 27 22  1  0  0  0
  9  1  1  0  0  0
 19 11  2  0  0  0
  8  4  1  0  0  0
 18 14  1  0  0  0
 30 33  1  0  0  0
  5 10  1  0  0  0
M  END
> <minimizedAffinity>
11.89910

> <CNNscore>
0.1454820484

> <CNNaffinity>
7.6677460670

> <CNN_VS>
1.1155194044

> <CNNaffinity_variance>
0.2068801820

$$$$
[H]c1nc2c(OC([H])([H])[H])c([H])c(-c3c(C([H])(C([H])([H])[H])C([H])([H])[H])c4c([H])c(C5([H])C([H])([H])C([H])([H])N(C([H])([H])C(=O)N([H])C([H])([H])[H])C([H])([H])C5([H])[H])c([H])c([H])c4n3[H])c([H])n2n1


 36 40  0  0  0  0  0  0  0  0999 V2000
    3.9510   50.1657  128.2638 C   0  0  0  0  0  0  0  0  0  0  0  0
    3.7998   48.9914  127.5777 C   0  0  0  0  0  0  0  0  0  0  0  0
    4.7135   47.9544  127.7743 C   0  0  0  0  0  0  0  0  0  0  0  0
    5.7783   48.0655  128.6434 C   0  0  0  0  0  0  0  0  0  0  0  0
    6.7620   47.2421  129.0011 N   0  0  0  0  0  0  0  0  0  0  0  0
    7.5939   47.8289  129.9225 C   0  0  0  0  0  0  0  0  0  0  0  0
    7.0650   49.0793  130.1206 C   0  0  0  0  0  0  0  0  0  0  0  0
    5.9174   49.2659  129.3321 C   0  0  0  0  0  0  0  0  0  0  0  0
    5.0237   50.2819  129.1422 C   0  0  0  0  0  0  0  0  0  0  0  0
    6.8614   46.2574  128.6139 H   0  0  0  0  0  0  0  0  0  0  0  0
    8.7904   47.1403  130.3788 C   0  0  0  0  0  0  0  0  0  0  0  0
    9.5301   46.3854  129.4168 C   0  0  0  0  0  0  0  0  0  0  0  0
   10.6468   45.6642  129.7244 C   0  0  0  0  0  0  0  0  0  0  0  0
   11.0563   45.6851  131.0372 C   0  0  0  0  0  0  0  0  0  0  0  0
   12.0918   45.0940  131.6577 N   0  0  0  0  0  0  0  0  0  0  0  0
   12.0508   45.4299  132.9595 C   0  0  0  0  0  0  0  0  0  0  0  0
   10.9765   46.2284  133.0997 N   0  0  0  0  0  0  0  0  0  0  0  0
   10.3724   46.3871  131.9482 N   0  0  0  0  0  0  0  0  0  0  0  0
    9.2605   47.1078  131.6560 C   0  0  0  0  0  0  0  0  0  0  0  0
   11.3558   44.9399  128.7973 O   0  0  0  0  0  0  0  0  0  0  0  0
   10.7877   43.8496  128.0734 C   0  0  0  0  0  0  0  0  0  0  0  0
    1.7143   52.8180  125.9736 N   0  0  0  0  0  0  0  0  0  0  0  0
    2.6175   53.4132  126.9540 C   0  0  0  0  0  0  0  0  0  0  0  0
    3.6918   52.4094  127.2599 C   0  0  0  0  0  0  0  0  0  0  0  0
    3.0082   51.3180  128.0766 C   0  0  0  0  0  0  0  0  0  0  0  0
    1.6549   50.9462  127.6329 C   0  0  0  0  0  0  0  0  0  0  0  0
    0.9573   51.7443  126.6153 C   0  0  0  0  0  0  0  0  0  0  0  0
    2.4747   52.1701  124.9147 C   0  0  0  0  0  0  0  0  0  0  0  0
    4.2759   53.9585  122.0128 C   0  0  0  0  0  0  0  0  0  0  0  0
    3.7519   52.8800  122.8590 N   0  0  0  0  0  0  0  0  0  0  0  0
    3.0305   53.2068  124.0231 C   0  0  0  0  0  0  0  0  0  0  0  0
    2.8591   54.4298  124.2958 O   0  0  0  0  0  0  0  0  0  0  0  0
    3.9227   51.8681  122.5656 H   0  0  0  0  0  0  0  0  0  0  0  0
    7.6032   50.0768  131.0278 C   0  0  0  0  0  0  0  0  0  0  0  0
    9.0731   50.1644  131.2488 C   0  0  0  0  0  0  0  0  0  0  0  0
    7.3283   51.4433  130.3236 C   0  0  0  0  0  0  0  0  0  0  0  0
 29 30  1  0  0  0
 30 31  1  0  0  0
 31 32  2  0  0  0
 31 28  1  0  0  0
 28 22  1  0  0  0
 22 23  1  0  0  0
 23 24  1  0  0  0
 24 25  1  0  0  0
 25 26  1  0  0  0
 26 27  1  0  0  0
 25  1  1  0  0  0
  1  2  2  0  0  0
  2  3  1  0  0  0
  3  4  2  0  0  0
  4  5  1  0  0  0
  5  6  1  0  0  0
  6  7  2  0  0  0
  7 34  1  0  0  0
 34 35  1  0  0  0
 34 36  1  0  0  0
  7  8  1  0  0  0
  8  9  2  0  0  0
  6 11  1  0  0  0
 11 12  1  0  0  0
 12 13  2  0  0  0
 13 20  1  0  0  0
 20 21  1  0  0  0
 13 14  1  0  0  0
 14 15  2  0  0  0
 15 16  1  0  0  0
 16 17  2  0  0  0
 17 18  1  0  0  0
 18 19  1  0  0  0
 27 22  1  0  0  0
  9  1  1  0  0  0
 19 11  2  0  0  0
  8  4  1  0  0  0
 18 14  1  0  0  0
 30 33  1  0  0  0
  5 10  1  0  0  0
M  END
> <minimizedAffinity>
19.00957

> <CNNscore>
0.1411304325

> <CNNaffinity>
6.7678556442

> <CNN_VS>
0.9551503658

> <CNNaffinity_variance>
0.2539400756

$$$$
[H]c1nc2c(OC([H])([H])[H])c([H])c(-c3c(C([H])(C([H])([H])[H])C([H])([H])[H])c4c([H])c(C5([H])C([H])([H])C([H])([H])N(C([H])([H])C(=O)N([H])C([H])([H])[H])C([H])([H])C5([H])[H])c([H])c([H])c4n3[H])c([H])n2n1


 36 40  0  0  0  0  0  0  0  0999 V2000
    7.1640   46.5150  130.9784 C   0  0  0  0  0  0  0  0  0  0  0  0
    6.1431   46.2653  130.1021 C   0  0  0  0  0  0  0  0  0  0  0  0
    5.8146   47.2174  129.1354 C   0  0  0  0  0  0  0  0  0  0  0  0
    6.4853   48.4171  129.0251 C   0  0  0  0  0  0  0  0  0  0  0  0
    6.3693   49.4629  128.2088 N   0  0  0  0  0  0  0  0  0  0  0  0
    7.2924   50.4345  128.5077 C   0  0  0  0  0  0  0  0  0  0  0  0
    7.9984   49.9272  129.5691 C   0  0  0  0  0  0  0  0  0  0  0  0
    7.5197   48.6550  129.9241 C   0  0  0  0  0  0  0  0  0  0  0  0
    7.8438   47.7242  130.8704 C   0  0  0  0  0  0  0  0  0  0  0  0
    5.6506   49.5094  127.4272 H   0  0  0  0  0  0  0  0  0  0  0  0
    7.2806   51.7047  127.8003 C   0  0  0  0  0  0  0  0  0  0  0  0
    6.0682   52.4612  127.8136 C   0  0  0  0  0  0  0  0  0  0  0  0
    5.9153   53.6480  127.1578 C   0  0  0  0  0  0  0  0  0  0  0  0
    7.0031   54.1138  126.4569 C   0  0  0  0  0  0  0  0  0  0  0  0
    7.1797   55.2229  125.7185 N   0  0  0  0  0  0  0  0  0  0  0  0
    8.4353   55.2130  125.2363 C   0  0  0  0  0  0  0  0  0  0  0  0
    8.9987   54.0823  125.7005 N   0  0  0  0  0  0  0  0  0  0  0  0
    8.1439   53.4149  126.4356 N   0  0  0  0  0  0  0  0  0  0  0  0
    8.3092   52.2337  127.0824 C   0  0  0  0  0  0  0  0  0  0  0  0
    4.7487   54.3730  127.1728 O   0  0  0  0  0  0  0  0  0  0  0  0
    4.1007   54.8141  125.9807 C   0  0  0  0  0  0  0  0  0  0  0  0
    9.8067   44.7970  133.6890 N   0  0  0  0  0  0  0  0  0  0  0  0
    9.1499   43.8833  132.7588 C   0  0  0  0  0  0  0  0  0  0  0  0
    8.7122   44.6791  131.5629 C   0  0  0  0  0  0  0  0  0  0  0  0
    7.5462   45.5340  132.0476 C   0  0  0  0  0  0  0  0  0  0  0  0
    7.6981   46.1112  133.3932 C   0  0  0  0  0  0  0  0  0  0  0  0
    8.8031   45.6906  134.2655 C   0  0  0  0  0  0  0  0  0  0  0  0
   10.7291   45.6677  132.9747 C   0  0  0  0  0  0  0  0  0  0  0  0
   13.1464   44.1147  130.4040 C   0  0  0  0  0  0  0  0  0  0  0  0
   12.0966   44.9667  130.9747 N   0  0  0  0  0  0  0  0  0  0  0  0
   11.7722   44.8393  132.3389 C   0  0  0  0  0  0  0  0  0  0  0  0
   12.4062   43.9879  133.0265 O   0  0  0  0  0  0  0  0  0  0  0  0
   11.6076   45.6731  130.3414 H   0  0  0  0  0  0  0  0  0  0  0  0
    9.0994   50.6000  130.2345 C   0  0  0  0  0  0  0  0  0  0  0  0
    9.0780   50.7766  131.7129 C   0  0  0  0  0  0  0  0  0  0  0  0
   10.3138   49.6319  130.0702 C   0  0  0  0  0  0  0  0  0  0  0  0
 29 30  1  0  0  0
 30 31  1  0  0  0
 31 32  2  0  0  0
 31 28  1  0  0  0
 28 22  1  0  0  0
 22 23  1  0  0  0
 23 24  1  0  0  0
 24 25  1  0  0  0
 25 26  1  0  0  0
 26 27  1  0  0  0
 25  1  1  0  0  0
  1  2  2  0  0  0
  2  3  1  0  0  0
  3  4  2  0  0  0
  4  5  1  0  0  0
  5  6  1  0  0  0
  6  7  2  0  0  0
  7 34  1  0  0  0
 34 35  1  0  0  0
 34 36  1  0  0  0
  7  8  1  0  0  0
  8  9  2  0  0  0
  6 11  1  0  0  0
 11 12  1  0  0  0
 12 13  2  0  0  0
 13 20  1  0  0  0
 20 21  1  0  0  0
 13 14  1  0  0  0
 14 15  2  0  0  0
 15 16  1  0  0  0
 16 17  2  0  0  0
 17 18  1  0  0  0
 18 19  1  0  0  0
 27 22  1  0  0  0
  9  1  1  0  0  0
 19 11  2  0  0  0
  8  4  1  0  0  0
 18 14  1  0  0  0
 30 33  1  0  0  0
  5 10  1  0  0  0
M  END
> <minimizedAffinity>
13.78071

> <CNNscore>
0.1261722445

> <CNNaffinity>
7.1893320084

> <CNN_VS>
0.9070941806

> <CNNaffinity_variance>
0.2859771550

$$$$
[H]c1nc2c(OC([H])([H])[H])c([H])c(-c3c(C([H])(C([H])([H])[H])C([H])([H])[H])c4c([H])c(C5([H])C([H])([H])C([H])([H])N(C([H])([H])C(=O)N([H])C([H])([H])[H])C([H])([H])C5([H])[H])c([H])c([H])c4n3[H])c([H])n2n1


 36 40  0  0  0  0  0  0  0  0999 V2000
    7.7612   51.1362  129.8710 C   0  0  0  0  0  0  0  0  0  0  0  0
    8.6442   51.5040  130.8496 C   0  0  0  0  0  0  0  0  0  0  0  0
    9.4267   50.5313  131.4745 C   0  0  0  0  0  0  0  0  0  0  0  0
    9.3457   49.1954  131.1425 C   0  0  0  0  0  0  0  0  0  0  0  0
    9.9688   48.1014  131.5765 N   0  0  0  0  0  0  0  0  0  0  0  0
    9.5292   46.9810  130.9156 C   0  0  0  0  0  0  0  0  0  0  0  0
    8.5860   47.4460  130.0344 C   0  0  0  0  0  0  0  0  0  0  0  0
    8.4427   48.8390  130.1463 C   0  0  0  0  0  0  0  0  0  0  0  0
    7.6765   49.7893  129.5325 C   0  0  0  0  0  0  0  0  0  0  0  0
   10.7147   48.1227  132.3334 H   0  0  0  0  0  0  0  0  0  0  0  0
   10.0091   45.6633  131.2995 C   0  0  0  0  0  0  0  0  0  0  0  0
   11.0581   45.5943  132.2676 C   0  0  0  0  0  0  0  0  0  0  0  0
   11.6215   44.4233  132.6835 C   0  0  0  0  0  0  0  0  0  0  0  0
   11.1323   43.2664  132.1232 C   0  0  0  0  0  0  0  0  0  0  0  0
   11.4624   41.9768  132.3092 N   0  0  0  0  0  0  0  0  0  0  0  0
   10.6831   41.2231  131.5131 C   0  0  0  0  0  0  0  0  0  0  0  0
    9.8872   42.0855  130.8541 N   0  0  0  0  0  0  0  0  0  0  0  0
   10.1510   43.3169  131.2150 N   0  0  0  0  0  0  0  0  0  0  0  0
    9.5825   44.4741  130.7923 C   0  0  0  0  0  0  0  0  0  0  0  0
   12.6295   44.3603  133.6146 O   0  0  0  0  0  0  0  0  0  0  0  0
   13.0195   45.4824  134.4046 C   0  0  0  0  0  0  0  0  0  0  0  0
    6.8581   53.8416  126.8464 N   0  0  0  0  0  0  0  0  0  0  0  0
    6.7497   54.3410  128.2140 C   0  0  0  0  0  0  0  0  0  0  0  0
    7.6101   53.4764  129.0899 C   0  0  0  0  0  0  0  0  0  0  0  0
    6.8839   52.1385  129.1800 C   0  0  0  0  0  0  0  0  0  0  0  0
    6.2669   51.6652  127.9302 C   0  0  0  0  0  0  0  0  0  0  0  0
    6.1830   52.5476  126.7583 C   0  0  0  0  0  0  0  0  0  0  0  0
    8.2499   53.5704  126.5169 C   0  0  0  0  0  0  0  0  0  0  0  0
    8.3992   54.3916  122.7530 C   0  0  0  0  0  0  0  0  0  0  0  0
    8.0488   53.7144  124.0070 N   0  0  0  0  0  0  0  0  0  0  0  0
    8.5661   54.2035  125.2217 C   0  0  0  0  0  0  0  0  0  0  0  0
    9.3191   55.2189  125.1843 O   0  0  0  0  0  0  0  0  0  0  0  0
    7.3990   52.8684  123.9695 H   0  0  0  0  0  0  0  0  0  0  0  0
    7.8404   46.6211  129.1009 C   0  0  0  0  0  0  0  0  0  0  0  0
    8.4369   45.3581  128.5847 C   0  0  0  0  0  0  0  0  0  0  0  0
    6.6424   46.0635  129.9330 C   0  0  0  0  0  0  0  0  0  0  0  0
 29 30  1  0  0  0
 30 31  1  0  0  0
 31 32  2  0  0  0
 31 28  1  0  0  0
 28 22  1  0  0  0
 22 23  1  0  0  0
 23 24  1  0  0  0
 24 25  1  0  0  0
 25 26  1  0  0  0
 26 27  1  0  0  0
 25  1  1  0  0  0
  1  2  2  0  0  0
  2  3  1  0  0  0
  3  4  2  0  0  0
  4  5  1  0  0  0
  5  6  1  0  0  0
  6  7  2  0  0  0
  7 34  1  0  0  0
 34 35  1  0  0  0
 34 36  1  0  0  0
  7  8  1  0  0  0
  8  9  2  0  0  0
  6 11  1  0  0  0
 11 12  1  0  0  0
 12 13  2  0  0  0
 13 20  1  0  0  0
 20 21  1  0  0  0
 13 14  1  0  0  0
 14 15  2  0  0  0
 15 16  1  0  0  0
 16 17  2  0  0  0
 17 18  1  0  0  0
 18 19  1  0  0  0
 27 22  1  0  0  0
  9  1  1  0  0  0
 19 11  2  0  0  0
  8  4  1  0  0  0
 18 14  1  0  0  0
 30 33  1  0  0  0
  5 10  1  0  0  0
M  END
> <minimizedAffinity>
14.97006

> <CNNscore>
0.1181277707

> <CNNaffinity>
6.9298067093

> <CNN_VS>
0.8186026216

> <CNNaffinity_variance>
0.3162247539

$$$$
[H]c1nc(N([H])C(=O)c2c([H])c(O[C@@]([H])(C([H])([H])[H])C([H])([H])OC([H])([H])[H])c([H])c(O[C@@]([H])(C([H])([H])[H])C(C([H])([H])[H])(C([H])([H])[H])C([H])([H])[H])c2[H])sc1[H]


 28 29  0  0  0  0  0  0  0  0999 V2000
    8.2482   46.7680  129.3776 C   0  0  0  0  0  0  0  0  0  0  0  0
    8.6098   46.7637  130.7223 C   0  0  0  0  0  0  0  0  0  0  0  0
    8.5445   47.8749  131.5318 C   0  0  0  0  0  0  0  0  0  0  0  0
    8.1041   49.0337  130.9866 C   0  0  0  0  0  0  0  0  0  0  0  0
    7.7300   49.0967  129.6510 C   0  0  0  0  0  0  0  0  0  0  0  0
    7.8079   47.9540  128.8590 C   0  0  0  0  0  0  0  0  0  0  0  0
    7.2653   50.3619  129.1163 C   0  0  0  0  0  0  0  0  0  0  0  0
    6.1598   50.8115  129.5095 O   0  0  0  0  0  0  0  0  0  0  0  0
    8.0104   51.1091  128.1684 N   0  0  0  0  0  0  0  0  0  0  0  0
    8.9377   50.8100  127.7878 H   0  0  0  0  0  0  0  0  0  0  0  0
    7.5071   52.3526  127.6719 C   0  0  0  0  0  0  0  0  0  0  0  0
    7.6086   52.7523  126.4161 N   0  0  0  0  0  0  0  0  0  0  0  0
    7.1206   53.8960  126.0623 C   0  0  0  0  0  0  0  0  0  0  0  0
    6.5087   54.6575  127.0224 C   0  0  0  0  0  0  0  0  0  0  0  0
    6.6818   53.6483  128.4053 S   0  0  0  0  0  0  0  0  0  0  0  0
    8.3648   45.5912  128.6985 O   0  0  0  0  0  0  0  0  0  0  0  0
    9.2336   44.5685  129.0234 C   0  0  0  0  0  0  0  0  0  0  0  0
   10.2724   44.3903  127.9181 C   0  0  0  0  0  0  0  0  0  0  0  0
    9.9190   44.9636  130.3259 C   0  0  0  0  0  0  0  0  0  0  0  0
    9.6504   42.8159  131.0713 C   0  0  0  0  0  0  0  0  0  0  0  0
   10.4688   43.9062  130.9869 O   0  0  0  0  0  0  0  0  0  0  0  0
    8.9371   47.7179  132.8473 O   0  0  0  0  0  0  0  0  0  0  0  0
   10.0627   47.0532  133.3167 C   0  0  0  0  0  0  0  0  0  0  0  0
   10.8354   48.0304  134.2093 C   0  0  0  0  0  0  0  0  0  0  0  0
    9.5682   45.9544  134.2679 C   0  0  0  0  0  0  0  0  0  0  0  0
    8.2651   45.3809  133.8258 C   0  0  0  0  0  0  0  0  0  0  0  0
    9.4349   46.4955  135.6734 C   0  0  0  0  0  0  0  0  0  0  0  0
   10.6685   44.9087  134.3004 C   0  0  0  0  0  0  0  0  0  0  0  0
 20 21  1  0  0  0
 21 19  1  0  0  0
 19 17  1  0  0  0
 17 18  1  0  0  0
 17 16  1  0  0  0
 16  1  1  0  0  0
  1  2  2  0  0  0
  2  3  1  0  0  0
  3 22  1  0  0  0
 22 23  1  0  0  0
 23 24  1  0  0  0
 23 25  1  0  0  0
 25 26  1  0  0  0
 25 27  1  0  0  0
 25 28  1  0  0  0
  3  4  2  0  0  0
  4  5  1  0  0  0
  5  6  2  0  0  0
  5  7  1  0  0  0
  7  8  2  0  0  0
  7  9  1  0  0  0
  9 11  1  0  0  0
 11 12  2  0  0  0
 12 13  1  0  0  0
 13 14  2  0  0  0
 14 15  1  0  0  0
  6  1  1  0  0  0
 15 11  1  0  0  0
  9 10  1  0  0  0
M  END
> <minimizedAffinity>
2.72900

> <CNNscore>
0.5468748212

> <CNNaffinity>
7.0655946732

> <CNN_VS>
3.8639957905

> <CNNaffinity_variance>
0.1833505929

$$$$
[H]c1nc(N([H])C(=O)c2c([H])c(O[C@@]([H])(C([H])([H])[H])C([H])([H])OC([H])([H])[H])c([H])c(O[C@@]([H])(C([H])([H])[H])C(C([H])([H])[H])(C([H])([H])[H])C([H])([H])[H])c2[H])sc1[H]


 28 29  0  0  0  0  0  0  0  0999 V2000
    9.4143   45.6304  129.3947 C   0  0  0  0  0  0  0  0  0  0  0  0
    9.4526   45.1062  130.6842 C   0  0  0  0  0  0  0  0  0  0  0  0
    9.5632   43.7616  130.9564 C   0  0  0  0  0  0  0  0  0  0  0  0
    9.6386   42.9052  129.9101 C   0  0  0  0  0  0  0  0  0  0  0  0
    9.6052   43.3716  128.6028 C   0  0  0  0  0  0  0  0  0  0  0  0
    9.4926   44.7384  128.3615 C   0  0  0  0  0  0  0  0  0  0  0  0
    9.6893   42.4125  127.5184 C   0  0  0  0  0  0  0  0  0  0  0  0
    9.2067   42.7241  126.4008 O   0  0  0  0  0  0  0  0  0  0  0  0
   10.2945   41.1389  127.6719 N   0  0  0  0  0  0  0  0  0  0  0  0
   10.7201   40.7985  128.5648 H   0  0  0  0  0  0  0  0  0  0  0  0
   10.3518   40.2287  126.5700 C   0  0  0  0  0  0  0  0  0  0  0  0
   11.4553   39.6392  126.1437 N   0  0  0  0  0  0  0  0  0  0  0  0
   11.4060   38.8296  125.1370 C   0  0  0  0  0  0  0  0  0  0  0  0
   10.1897   38.6146  124.5452 C   0  0  0  0  0  0  0  0  0  0  0  0
    9.1731   39.6188  125.5038 S   0  0  0  0  0  0  0  0  0  0  0  0
    9.3025   46.9843  129.2768 O   0  0  0  0  0  0  0  0  0  0  0  0
    8.3354   47.7584  129.8867 C   0  0  0  0  0  0  0  0  0  0  0  0
    8.9906   48.8225  130.7647 C   0  0  0  0  0  0  0  0  0  0  0  0
    7.5298   48.4211  128.7757 C   0  0  0  0  0  0  0  0  0  0  0  0
    5.9208   47.0196  129.6048 C   0  0  0  0  0  0  0  0  0  0  0  0
    6.2959   47.8689  128.6030 O   0  0  0  0  0  0  0  0  0  0  0  0
    9.5886   43.3900  132.2870 O   0  0  0  0  0  0  0  0  0  0  0  0
   10.7038   43.0724  133.0517 C   0  0  0  0  0  0  0  0  0  0  0  0
   11.9182   43.0731  132.1167 C   0  0  0  0  0  0  0  0  0  0  0  0
   10.9398   44.2500  134.0078 C   0  0  0  0  0  0  0  0  0  0  0  0
   11.3117   43.7897  135.3762 C   0  0  0  0  0  0  0  0  0  0  0  0
    9.7075   45.1228  134.0825 C   0  0  0  0  0  0  0  0  0  0  0  0
   12.0352   45.0871  133.3716 C   0  0  0  0  0  0  0  0  0  0  0  0
 20 21  1  0  0  0
 21 19  1  0  0  0
 19 17  1  0  0  0
 17 18  1  0  0  0
 17 16  1  0  0  0
 16  1  1  0  0  0
  1  2  2  0  0  0
  2  3  1  0  0  0
  3 22  1  0  0  0
 22 23  1  0  0  0
 23 24  1  0  0  0
 23 25  1  0  0  0
 25 26  1  0  0  0
 25 27  1  0  0  0
 25 28  1  0  0  0
  3  4  2  0  0  0
  4  5  1  0  0  0
  5  6  2  0  0  0
  5  7  1  0  0  0
  7  8  2  0  0  0
  7  9  1  0  0  0
  9 11  1  0  0  0
 11 12  2  0  0  0
 12 13  1  0  0  0
 13 14  2  0  0  0
 14 15  1  0  0  0
  6  1  1  0  0  0
 15 11  1  0  0  0
  9 10  1  0  0  0
M  END
> <minimizedAffinity>
9.38818

> <CNNscore>
0.5131623149

> <CNNaffinity>
7.0342903137

> <CNN_VS>
3.6097326279

> <CNNaffinity_variance>
0.4782191217

$$$$
[H]c1nc(N([H])C(=O)c2c([H])c(O[C@@]([H])(C([H])([H])[H])C([H])([H])OC([H])([H])[H])c([H])c(O[C@@]([H])(C([H])([H])[H])C(C([H])([H])[H])(C([H])([H])[H])C([H])([H])[H])c2[H])sc1[H]


 28 29  0  0  0  0  0  0  0  0999 V2000
    8.5544   48.4721  132.0660 C   0  0  0  0  0  0  0  0  0  0  0  0
    8.6798   47.3392  131.2662 C   0  0  0  0  0  0  0  0  0  0  0  0
    8.4235   47.3298  129.9140 C   0  0  0  0  0  0  0  0  0  0  0  0
    8.0277   48.4878  129.3338 C   0  0  0  0  0  0  0  0  0  0  0  0
    7.8856   49.6484  130.0824 C   0  0  0  0  0  0  0  0  0  0  0  0
    8.1531   49.6242  131.4487 C   0  0  0  0  0  0  0  0  0  0  0  0
    7.4593   50.8618  129.4126 C   0  0  0  0  0  0  0  0  0  0  0  0
    6.6410   51.6157  129.9966 O   0  0  0  0  0  0  0  0  0  0  0  0
    7.9304   51.2284  128.1259 N   0  0  0  0  0  0  0  0  0  0  0  0
    8.6108   50.6611  127.5696 H   0  0  0  0  0  0  0  0  0  0  0  0
    7.4783   52.4369  127.5083 C   0  0  0  0  0  0  0  0  0  0  0  0
    6.8017   53.3868  128.1304 N   0  0  0  0  0  0  0  0  0  0  0  0
    6.4360   54.4458  127.4853 C   0  0  0  0  0  0  0  0  0  0  0  0
    6.7720   54.5384  126.1607 C   0  0  0  0  0  0  0  0  0  0  0  0
    7.6138   53.0558  125.9282 S   0  0  0  0  0  0  0  0  0  0  0  0
    8.8425   48.3325  133.3916 O   0  0  0  0  0  0  0  0  0  0  0  0
    9.3492   47.1904  133.9792 C   0  0  0  0  0  0  0  0  0  0  0  0
    8.3612   46.0364  133.8227 C   0  0  0  0  0  0  0  0  0  0  0  0
   10.6536   46.8624  133.2625 C   0  0  0  0  0  0  0  0  0  0  0  0
   11.9407   44.9700  133.3125 C   0  0  0  0  0  0  0  0  0  0  0  0
   11.4817   46.0625  133.9917 O   0  0  0  0  0  0  0  0  0  0  0  0
    8.5916   46.1293  129.2509 O   0  0  0  0  0  0  0  0  0  0  0  0
    9.2548   44.9988  129.7108 C   0  0  0  0  0  0  0  0  0  0  0  0
    8.3132   43.8043  129.5223 C   0  0  0  0  0  0  0  0  0  0  0  0
   10.4199   44.7407  128.7450 C   0  0  0  0  0  0  0  0  0  0  0  0
   10.6533   45.8970  127.8334 C   0  0  0  0  0  0  0  0  0  0  0  0
   10.1615   43.4942  127.9294 C   0  0  0  0  0  0  0  0  0  0  0  0
   11.6270   44.4530  129.6199 C   0  0  0  0  0  0  0  0  0  0  0  0
 20 21  1  0  0  0
 21 19  1  0  0  0
 19 17  1  0  0  0
 17 18  1  0  0  0
 17 16  1  0  0  0
 16  1  1  0  0  0
  1  2  2  0  0  0
  2  3  1  0  0  0
  3 22  1  0  0  0
 22 23  1  0  0  0
 23 24  1  0  0  0
 23 25  1  0  0  0
 25 26  1  0  0  0
 25 27  1  0  0  0
 25 28  1  0  0  0
  3  4  2  0  0  0
  4  5  1  0  0  0
  5  6  2  0  0  0
  5  7  1  0  0  0
  7  8  2  0  0  0
  7  9  1  0  0  0
  9 11  1  0  0  0
 11 12  2  0  0  0
 12 13  1  0  0  0
 13 14  2  0  0  0
 14 15  1  0  0  0
  6  1  1  0  0  0
 15 11  1  0  0  0
  9 10  1  0  0  0
M  END
> <minimizedAffinity>
-0.01110

> <CNNscore>
0.5072239637

> <CNNaffinity>
7.0508470535

> <CNN_VS>
3.5763585567

> <CNNaffinity_variance>
0.1219042540

$$$$
[H]c1nc(N([H])C(=O)c2c([H])c(O[C@@]([H])(C([H])([H])[H])C([H])([H])OC([H])([H])[H])c([H])c(O[C@@]([H])(C([H])([H])[H])C(C([H])([H])[H])(C([H])([H])[H])C([H])([H])[H])c2[H])sc1[H]


 28 29  0  0  0  0  0  0  0  0999 V2000
    8.6403   44.7705  130.1316 C   0  0  0  0  0  0  0  0  0  0  0  0
    8.9005   44.4913  131.4707 C   0  0  0  0  0  0  0  0  0  0  0  0
    8.9472   45.4532  132.4539 C   0  0  0  0  0  0  0  0  0  0  0  0
    8.7276   46.7405  132.0949 C   0  0  0  0  0  0  0  0  0  0  0  0
    8.4634   47.0774  130.7742 C   0  0  0  0  0  0  0  0  0  0  0  0
    8.4231   46.0799  129.8034 C   0  0  0  0  0  0  0  0  0  0  0  0
    8.2352   48.4705  130.4427 C   0  0  0  0  0  0  0  0  0  0  0  0
    8.9298   49.3469  131.0157 O   0  0  0  0  0  0  0  0  0  0  0  0
    7.2594   48.8797  129.4981 N   0  0  0  0  0  0  0  0  0  0  0  0
    6.6390   48.2189  128.9759 H   0  0  0  0  0  0  0  0  0  0  0  0
    7.0735   50.2677  129.2065 C   0  0  0  0  0  0  0  0  0  0  0  0
    7.3778   50.8367  128.0529 N   0  0  0  0  0  0  0  0  0  0  0  0
    7.1724   52.1019  127.8842 C   0  0  0  0  0  0  0  0  0  0  0  0
    6.6387   52.8103  128.9279 C   0  0  0  0  0  0  0  0  0  0  0  0
    6.4642   51.5741  130.1121 S   0  0  0  0  0  0  0  0  0  0  0  0
    8.6251   43.7154  129.2679 O   0  0  0  0  0  0  0  0  0  0  0  0
    9.7366   43.1771  128.6505 C   0  0  0  0  0  0  0  0  0  0  0  0
    9.5036   43.0755  127.1445 C   0  0  0  0  0  0  0  0  0  0  0  0
   10.9028   44.1154  128.9367 C   0  0  0  0  0  0  0  0  0  0  0  0
   12.7844   44.4875  130.1864 C   0  0  0  0  0  0  0  0  0  0  0  0
   11.7417   43.6512  129.9052 O   0  0  0  0  0  0  0  0  0  0  0  0
    9.2169   45.0250  133.7397 O   0  0  0  0  0  0  0  0  0  0  0  0
   10.3627   45.2695  134.4859 C   0  0  0  0  0  0  0  0  0  0  0  0
    9.9298   45.4653  135.9430 C   0  0  0  0  0  0  0  0  0  0  0  0
   11.1805   43.9703  134.4870 C   0  0  0  0  0  0  0  0  0  0  0  0
   11.5325   43.5358  135.8690 C   0  0  0  0  0  0  0  0  0  0  0  0
   12.4418   44.1414  133.6711 C   0  0  0  0  0  0  0  0  0  0  0  0
   10.3257   42.9422  133.7675 C   0  0  0  0  0  0  0  0  0  0  0  0
 20 21  1  0  0  0
 21 19  1  0  0  0
 19 17  1  0  0  0
 17 18  1  0  0  0
 17 16  1  0  0  0
 16  1  1  0  0  0
  1  2  2  0  0  0
  2  3  1  0  0  0
  3 22  1  0  0  0
 22 23  1  0  0  0
 23 24  1  0  0  0
 23 25  1  0  0  0
 25 26  1  0  0  0
 25 27  1  0  0  0
 25 28  1  0  0  0
  3  4  2  0  0  0
  4  5  1  0  0  0
  5  6  2  0  0  0
  5  7  1  0  0  0
  7  8  2  0  0  0
  7  9  1  0  0  0
  9 11  1  0  0  0
 11 12  2  0  0  0
 12 13  1  0  0  0
 13 14  2  0  0  0
 14 15  1  0  0  0
  6  1  1  0  0  0
 15 11  1  0  0  0
  9 10  1  0  0  0
M  END
> <minimizedAffinity>
1.13930

> <CNNscore>
0.4890582263

> <CNNaffinity>
7.3237571716

> <CNN_VS>
3.5817437172

> <CNNaffinity_variance>
0.7927510738

$$$$
[H]c1nc(N([H])C(=O)c2c([H])c(O[C@@]([H])(C([H])([H])[H])C([H])([H])OC([H])([H])[H])c([H])c(O[C@@]([H])(C([H])([H])[H])C(C([H])([H])[H])(C([H])([H])[H])C([H])([H])[H])c2[H])sc1[H]


 28 29  0  0  0  0  0  0  0  0999 V2000
    8.4470   48.4203  131.7691 C   0  0  0  0  0  0  0  0  0  0  0  0
    8.4378   47.2844  130.9637 C   0  0  0  0  0  0  0  0  0  0  0  0
    8.0916   47.2983  129.6317 C   0  0  0  0  0  0  0  0  0  0  0  0
    7.7413   48.4837  129.0782 C   0  0  0  0  0  0  0  0  0  0  0  0
    7.7324   49.6486  129.8335 C   0  0  0  0  0  0  0  0  0  0  0  0
    8.0882   49.6002  131.1789 C   0  0  0  0  0  0  0  0  0  0  0  0
    7.3495   50.8917  129.1926 C   0  0  0  0  0  0  0  0  0  0  0  0
    6.5375   51.6477  129.7827 O   0  0  0  0  0  0  0  0  0  0  0  0
    7.8561   51.2851  127.9275 N   0  0  0  0  0  0  0  0  0  0  0  0
    8.5341   50.7181  127.3681 H   0  0  0  0  0  0  0  0  0  0  0  0
    7.4463   52.5224  127.3382 C   0  0  0  0  0  0  0  0  0  0  0  0
    6.9572   53.5471  128.0147 N   0  0  0  0  0  0  0  0  0  0  0  0
    6.6141   54.6264  127.3912 C   0  0  0  0  0  0  0  0  0  0  0  0
    6.7754   54.6610  126.0315 C   0  0  0  0  0  0  0  0  0  0  0  0
    7.4274   53.0963  125.7356 S   0  0  0  0  0  0  0  0  0  0  0  0
    8.8124   48.2555  133.0725 O   0  0  0  0  0  0  0  0  0  0  0  0
    9.8211   47.4237  133.5164 C   0  0  0  0  0  0  0  0  0  0  0  0
   10.9262   48.2446  134.1778 C   0  0  0  0  0  0  0  0  0  0  0  0
    9.1988   46.4719  134.5310 C   0  0  0  0  0  0  0  0  0  0  0  0
    9.8116   44.4870  133.5690 C   0  0  0  0  0  0  0  0  0  0  0  0
    8.7896   45.2934  133.9825 O   0  0  0  0  0  0  0  0  0  0  0  0
    8.1293   46.0914  128.9600 O   0  0  0  0  0  0  0  0  0  0  0  0
    9.2282   45.5020  128.3482 C   0  0  0  0  0  0  0  0  0  0  0  0
   10.4428   46.3948  128.6248 C   0  0  0  0  0  0  0  0  0  0  0  0
    9.5148   44.1978  129.1055 C   0  0  0  0  0  0  0  0  0  0  0  0
    8.3651   43.7873  129.9613 C   0  0  0  0  0  0  0  0  0  0  0  0
   10.7554   44.3452  129.9572 C   0  0  0  0  0  0  0  0  0  0  0  0
    9.8308   43.1618  128.0415 C   0  0  0  0  0  0  0  0  0  0  0  0
 20 21  1  0  0  0
 21 19  1  0  0  0
 19 17  1  0  0  0
 17 18  1  0  0  0
 17 16  1  0  0  0
 16  1  1  0  0  0
  1  2  2  0  0  0
  2  3  1  0  0  0
  3 22  1  0  0  0
 22 23  1  0  0  0
 23 24  1  0  0  0
 23 25  1  0  0  0
 25 26  1  0  0  0
 25 27  1  0  0  0
 25 28  1  0  0  0
  3  4  2  0  0  0
  4  5  1  0  0  0
  5  6  2  0  0  0
  5  7  1  0  0  0
  7  8  2  0  0  0
  7  9  1  0  0  0
  9 11  1  0  0  0
 11 12  2  0  0  0
 12 13  1  0  0  0
 13 14  2  0  0  0
 14 15  1  0  0  0
  6  1  1  0  0  0
 15 11  1  0  0  0
  9 10  1  0  0  0
M  END
> <minimizedAffinity>
0.35999

> <CNNscore>
0.4653112590

> <CNNaffinity>
6.8431510925

> <CNN_VS>
3.1841952801

> <CNNaffinity_variance>
0.0942300111

$$$$
[H]c1nc(N([H])C(=O)c2c([H])c(O[C@@]([H])(C([H])([H])[H])C([H])([H])OC([H])([H])[H])c([H])c(O[C@@]([H])(C([H])([H])[H])C(C([H])([H])[H])(C([H])([H])[H])C([H])([H])[H])c2[H])sc1[H]


 28 29  0  0  0  0  0  0  0  0999 V2000
    9.5568   47.1587  133.2941 C   0  0  0  0  0  0  0  0  0  0  0  0
   10.1886   46.2316  132.4694 C   0  0  0  0  0  0  0  0  0  0  0  0
   10.3730   46.4160  131.1180 C   0  0  0  0  0  0  0  0  0  0  0  0
    9.9133   47.5632  130.5643 C   0  0  0  0  0  0  0  0  0  0  0  0
    9.2754   48.5232  131.3384 C   0  0  0  0  0  0  0  0  0  0  0  0
    9.1048   48.3058  132.7032 C   0  0  0  0  0  0  0  0  0  0  0  0
    8.8021   49.7342  130.6964 C   0  0  0  0  0  0  0  0  0  0  0  0
    9.1859   50.8430  131.1460 O   0  0  0  0  0  0  0  0  0  0  0  0
    7.9241   49.7137  129.5826 N   0  0  0  0  0  0  0  0  0  0  0  0
    7.5560   48.8376  129.1452 H   0  0  0  0  0  0  0  0  0  0  0  0
    7.4861   50.9374  128.9852 C   0  0  0  0  0  0  0  0  0  0  0  0
    6.9668   51.9521  129.6542 N   0  0  0  0  0  0  0  0  0  0  0  0
    6.5998   53.0195  129.0238 C   0  0  0  0  0  0  0  0  0  0  0  0
    6.7683   53.0523  127.6650 C   0  0  0  0  0  0  0  0  0  0  0  0
    7.4621   51.5037  127.3800 S   0  0  0  0  0  0  0  0  0  0  0  0
    9.4451   46.8412  134.6156 O   0  0  0  0  0  0  0  0  0  0  0  0
    9.4472   45.5592  135.1282 C   0  0  0  0  0  0  0  0  0  0  0  0
    8.6338   44.6319  134.2277 C   0  0  0  0  0  0  0  0  0  0  0  0
   10.8999   45.1007  135.1744 C   0  0  0  0  0  0  0  0  0  0  0  0
   12.2960   43.8280  133.8815 C   0  0  0  0  0  0  0  0  0  0  0  0
   11.1076   43.9073  134.5501 O   0  0  0  0  0  0  0  0  0  0  0  0
   11.0179   45.4071  130.4284 O   0  0  0  0  0  0  0  0  0  0  0  0
   10.7543   44.9675  129.1374 C   0  0  0  0  0  0  0  0  0  0  0  0
   12.0600   44.4016  128.5684 C   0  0  0  0  0  0  0  0  0  0  0  0
    9.8184   43.7568  129.2603 C   0  0  0  0  0  0  0  0  0  0  0  0
   10.2413   42.8354  130.3533 C   0  0  0  0  0  0  0  0  0  0  0  0
    9.7607   43.0011  127.9521 C   0  0  0  0  0  0  0  0  0  0  0  0
    8.4323   44.3276  129.5015 C   0  0  0  0  0  0  0  0  0  0  0  0
 20 21  1  0  0  0
 21 19  1  0  0  0
 19 17  1  0  0  0
 17 18  1  0  0  0
 17 16  1  0  0  0
 16  1  1  0  0  0
  1  2  2  0  0  0
  2  3  1  0  0  0
  3 22  1  0  0  0
 22 23  1  0  0  0
 23 24  1  0  0  0
 23 25  1  0  0  0
 25 26  1  0  0  0
 25 27  1  0  0  0
 25 28  1  0  0  0
  3  4  2  0  0  0
  4  5  1  0  0  0
  5  6  2  0  0  0
  5  7  1  0  0  0
  7  8  2  0  0  0
  7  9  1  0  0  0
  9 11  1  0  0  0
 11 12  2  0  0  0
 12 13  1  0  0  0
 13 14  2  0  0  0
 14 15  1  0  0  0
  6  1  1  0  0  0
 15 11  1  0  0  0
  9 10  1  0  0  0
M  END
> <minimizedAffinity>
2.55512

> <CNNscore>
0.4022756815

> <CNNaffinity>
7.1594238281

> <CNN_VS>
2.8800621033

> <CNNaffinity_variance>
0.3862383366

$$$$
[H]c1nc(N([H])C(=O)c2c([H])c(O[C@@]([H])(C([H])([H])[H])C([H])([H])OC([H])([H])[H])c([H])c(O[C@@]([H])(C([H])([H])[H])C(C([H])([H])[H])(C([H])([H])[H])C([H])([H])[H])c2[H])sc1[H]


 28 29  0  0  0  0  0  0  0  0999 V2000
   10.3187   46.4272  132.7424 C   0  0  0  0  0  0  0  0  0  0  0  0
   10.6788   45.5209  131.7485 C   0  0  0  0  0  0  0  0  0  0  0  0
   10.5205   45.7637  130.4031 C   0  0  0  0  0  0  0  0  0  0  0  0
    9.9847   46.9503  130.0300 C   0  0  0  0  0  0  0  0  0  0  0  0
    9.6073   47.8920  130.9778 C   0  0  0  0  0  0  0  0  0  0  0  0
    9.7809   47.6151  132.3314 C   0  0  0  0  0  0  0  0  0  0  0  0
    9.0386   49.1468  130.5253 C   0  0  0  0  0  0  0  0  0  0  0  0
    9.4717   50.2171  131.0210 O   0  0  0  0  0  0  0  0  0  0  0  0
    8.0141   49.2108  129.5465 N   0  0  0  0  0  0  0  0  0  0  0  0
    7.5963   48.3714  129.0827 H   0  0  0  0  0  0  0  0  0  0  0  0
    7.4866   50.4750  129.1343 C   0  0  0  0  0  0  0  0  0  0  0  0
    6.7632   51.2700  129.9035 N   0  0  0  0  0  0  0  0  0  0  0  0
    6.3303   52.3964  129.4397 C   0  0  0  0  0  0  0  0  0  0  0  0
    6.6461   52.7224  128.1474 C   0  0  0  0  0  0  0  0  0  0  0  0
    7.5693   51.3490  127.6758 S   0  0  0  0  0  0  0  0  0  0  0  0
   10.5340   46.0505  134.0352 O   0  0  0  0  0  0  0  0  0  0  0  0
    9.5866   46.0765  135.0393 C   0  0  0  0  0  0  0  0  0  0  0  0
   10.2591   46.3110  136.3903 C   0  0  0  0  0  0  0  0  0  0  0  0
    8.6346   47.2238  134.7233 C   0  0  0  0  0  0  0  0  0  0  0  0
    7.5300   48.7939  135.9704 C   0  0  0  0  0  0  0  0  0  0  0  0
    7.7364   47.4673  135.7189 O   0  0  0  0  0  0  0  0  0  0  0  0
   10.9241   44.7689  129.5332 O   0  0  0  0  0  0  0  0  0  0  0  0
   10.1138   43.9214  128.7887 C   0  0  0  0  0  0  0  0  0  0  0  0
   10.9673   43.3511  127.6506 C   0  0  0  0  0  0  0  0  0  0  0  0
    9.7884   42.7160  129.6818 C   0  0  0  0  0  0  0  0  0  0  0  0
   10.8236   42.5079  130.7343 C   0  0  0  0  0  0  0  0  0  0  0  0
    9.6534   41.4630  128.8466 C   0  0  0  0  0  0  0  0  0  0  0  0
    8.4205   42.9988  130.2770 C   0  0  0  0  0  0  0  0  0  0  0  0
 20 21  1  0  0  0
 21 19  1  0  0  0
 19 17  1  0  0  0
 17 18  1  0  0  0
 17 16  1  0  0  0
 16  1  1  0  0  0
  1  2  2  0  0  0
  2  3  1  0  0  0
  3 22  1  0  0  0
 22 23  1  0  0  0
 23 24  1  0  0  0
 23 25  1  0  0  0
 25 26  1  0  0  0
 25 27  1  0  0  0
 25 28  1  0  0  0
  3  4  2  0  0  0
  4  5  1  0  0  0
  5  6  2  0  0  0
  5  7  1  0  0  0
  7  8  2  0  0  0
  7  9  1  0  0  0
  9 11  1  0  0  0
 11 12  2  0  0  0
 12 13  1  0  0  0
 13 14  2  0  0  0
 14 15  1  0  0  0
  6  1  1  0  0  0
 15 11  1  0  0  0
  9 10  1  0  0  0
M  END
> <minimizedAffinity>
7.98747

> <CNNscore>
0.3956541717

> <CNNaffinity>
7.0810785294

> <CNN_VS>
2.8016581535

> <CNNaffinity_variance>
1.9715276957

$$$$
[H]c1nc(N([H])C(=O)c2c([H])c(O[C@@]([H])(C([H])([H])[H])C([H])([H])OC([H])([H])[H])c([H])c(O[C@@]([H])(C([H])([H])[H])C(C([H])([H])[H])(C([H])([H])[H])C([H])([H])[H])c2[H])sc1[H]


 28 29  0  0  0  0  0  0  0  0999 V2000
   11.2963   46.0022  130.0226 C   0  0  0  0  0  0  0  0  0  0  0  0
   11.6254   45.8844  131.3705 C   0  0  0  0  0  0  0  0  0  0  0  0
   10.9775   46.5668  132.3749 C   0  0  0  0  0  0  0  0  0  0  0  0
    9.9653   47.3973  132.0289 C   0  0  0  0  0  0  0  0  0  0  0  0
    9.5938   47.5541  130.7003 C   0  0  0  0  0  0  0  0  0  0  0  0
   10.2698   46.8488  129.7080 C   0  0  0  0  0  0  0  0  0  0  0  0
    8.5031   48.4556  130.3834 C   0  0  0  0  0  0  0  0  0  0  0  0
    8.7373   49.6891  130.3333 O   0  0  0  0  0  0  0  0  0  0  0  0
    7.1850   47.9979  130.1286 N   0  0  0  0  0  0  0  0  0  0  0  0
    6.9022   46.9910  130.1492 H   0  0  0  0  0  0  0  0  0  0  0  0
    6.1439   48.9292  129.8202 C   0  0  0  0  0  0  0  0  0  0  0  0
    5.0762   48.6439  129.0952 N   0  0  0  0  0  0  0  0  0  0  0  0
    4.1872   49.5554  128.8706 C   0  0  0  0  0  0  0  0  0  0  0  0
    4.3950   50.7998  129.4037 C   0  0  0  0  0  0  0  0  0  0  0  0
    5.8953   50.5667  130.2135 S   0  0  0  0  0  0  0  0  0  0  0  0
   12.0254   45.2642  129.1376 O   0  0  0  0  0  0  0  0  0  0  0  0
   12.3653   43.9359  129.3002 C   0  0  0  0  0  0  0  0  0  0  0  0
   13.5765   43.8126  130.2224 C   0  0  0  0  0  0  0  0  0  0  0  0
   11.1607   43.2413  129.9239 C   0  0  0  0  0  0  0  0  0  0  0  0
    8.8767   43.2541  129.7715 C   0  0  0  0  0  0  0  0  0  0  0  0
   10.0698   43.2197  129.1075 O   0  0  0  0  0  0  0  0  0  0  0  0
   11.4156   46.3483  133.6670 O   0  0  0  0  0  0  0  0  0  0  0  0
   10.7822   45.6084  134.6573 C   0  0  0  0  0  0  0  0  0  0  0  0
    9.2843   45.5933  134.3334 C   0  0  0  0  0  0  0  0  0  0  0  0
   11.2386   44.1525  134.4877 C   0  0  0  0  0  0  0  0  0  0  0  0
   10.3144   43.3784  133.6105 C   0  0  0  0  0  0  0  0  0  0  0  0
   11.3481   43.4746  135.8346 C   0  0  0  0  0  0  0  0  0  0  0  0
   12.6425   44.2227  133.9138 C   0  0  0  0  0  0  0  0  0  0  0  0
 20 21  1  0  0  0
 21 19  1  0  0  0
 19 17  1  0  0  0
 17 18  1  0  0  0
 17 16  1  0  0  0
 16  1  1  0  0  0
  1  2  2  0  0  0
  2  3  1  0  0  0
  3 22  1  0  0  0
 22 23  1  0  0  0
 23 24  1  0  0  0
 23 25  1  0  0  0
 25 26  1  0  0  0
 25 27  1  0  0  0
 25 28  1  0  0  0
  3  4  2  0  0  0
  4  5  1  0  0  0
  5  6  2  0  0  0
  5  7  1  0  0  0
  7  8  2  0  0  0
  7  9  1  0  0  0
  9 11  1  0  0  0
 11 12  2  0  0  0
 12 13  1  0  0  0
 13 14  2  0  0  0
 14 15  1  0  0  0
  6  1  1  0  0  0
 15 11  1  0  0  0
  9 10  1  0  0  0
M  END
> <minimizedAffinity>
1.66229

> <CNNscore>
0.3839983344

> <CNNaffinity>
7.0162267685

> <CNN_VS>
2.6942193508

> <CNNaffinity_variance>
0.2887149453

$$$$
[H]c1nc(N([H])C(=O)c2c([H])c(O[C@@]([H])(C([H])([H])[H])C([H])([H])OC([H])([H])[H])c([H])c(O[C@@]([H])(C([H])([H])[H])C(C([H])([H])[H])(C([H])([H])[H])C([H])([H])[H])c2[H])sc1[H]


 28 29  0  0  0  0  0  0  0  0999 V2000
    8.6549   45.8299  129.6077 C   0  0  0  0  0  0  0  0  0  0  0  0
    8.7397   45.5952  130.9776 C   0  0  0  0  0  0  0  0  0  0  0  0
    8.6749   46.5905  131.9260 C   0  0  0  0  0  0  0  0  0  0  0  0
    8.5205   47.8664  131.4990 C   0  0  0  0  0  0  0  0  0  0  0  0
    8.4302   48.1594  130.1449 C   0  0  0  0  0  0  0  0  0  0  0  0
    8.4992   47.1289  129.2108 C   0  0  0  0  0  0  0  0  0  0  0  0
    8.2652   49.5422  129.7406 C   0  0  0  0  0  0  0  0  0  0  0  0
    8.9716   50.4200  130.2967 O   0  0  0  0  0  0  0  0  0  0  0  0
    7.3383   49.9396  128.7432 N   0  0  0  0  0  0  0  0  0  0  0  0
    6.7122   49.2768  128.2304 H   0  0  0  0  0  0  0  0  0  0  0  0
    7.2140   51.3177  128.3805 C   0  0  0  0  0  0  0  0  0  0  0  0
    6.8355   52.2772  129.2070 N   0  0  0  0  0  0  0  0  0  0  0  0
    6.7532   53.4964  128.7848 C   0  0  0  0  0  0  0  0  0  0  0  0
    7.0676   53.7446  127.4750 C   0  0  0  0  0  0  0  0  0  0  0  0
    7.4710   52.1645  126.9262 S   0  0  0  0  0  0  0  0  0  0  0  0
    8.7344   44.7453  128.7849 O   0  0  0  0  0  0  0  0  0  0  0  0
    9.8277   43.9093  128.6747 C   0  0  0  0  0  0  0  0  0  0  0  0
    9.5785   42.8578  127.5955 C   0  0  0  0  0  0  0  0  0  0  0  0
   11.0175   44.7808  128.2904 C   0  0  0  0  0  0  0  0  0  0  0  0
   11.9013   43.8821  130.2013 C   0  0  0  0  0  0  0  0  0  0  0  0
   11.9461   44.8910  129.2816 O   0  0  0  0  0  0  0  0  0  0  0  0
    8.7738   46.2051  133.2492 O   0  0  0  0  0  0  0  0  0  0  0  0
    9.8785   46.3286  134.0821 C   0  0  0  0  0  0  0  0  0  0  0  0
    9.3604   46.4384  135.5203 C   0  0  0  0  0  0  0  0  0  0  0  0
   10.6273   44.9893  134.0323 C   0  0  0  0  0  0  0  0  0  0  0  0
    9.8449   43.9408  133.3174 C   0  0  0  0  0  0  0  0  0  0  0  0
   10.9529   44.5158  135.4307 C   0  0  0  0  0  0  0  0  0  0  0  0
   11.9500   45.2797  133.3457 C   0  0  0  0  0  0  0  0  0  0  0  0
 20 21  1  0  0  0
 21 19  1  0  0  0
 19 17  1  0  0  0
 17 18  1  0  0  0
 17 16  1  0  0  0
 16  1  1  0  0  0
  1  2  2  0  0  0
  2  3  1  0  0  0
  3 22  1  0  0  0
 22 23  1  0  0  0
 23 24  1  0  0  0
 23 25  1  0  0  0
 25 26  1  0  0  0
 25 27  1  0  0  0
 25 28  1  0  0  0
  3  4  2  0  0  0
  4  5  1  0  0  0
  5  6  2  0  0  0
  5  7  1  0  0  0
  7  8  2  0  0  0
  7  9  1  0  0  0
  9 11  1  0  0  0
 11 12  2  0  0  0
 12 13  1  0  0  0
 13 14  2  0  0  0
 14 15  1  0  0  0
  6  1  1  0  0  0
 15 11  1  0  0  0
  9 10  1  0  0  0
M  END
> <minimizedAffinity>
1.89537

> <CNNscore>
0.3562371731

> <CNNaffinity>
6.9169960022

> <CNN_VS>
2.4640910625

> <CNNaffinity_variance>
0.2658061385

$$$$
[H]C([H])=C([H])C(=O)N1[C@@]2([H])C([H])([H])C([H])([H])C([H])([H])[C@]1([H])C([H])([H])[C@@]([H])(N([H])c1nc(N([H])c3nn([H])c(C([H])([H])[H])c3[H])c([H])c3nc([H])c([H])c([H])c13)C2([H])[H]


 34 38  0  0  0  0  0  0  0  0999 V2000
    9.0989   47.8496  129.5678 C   0  0  0  0  0  0  0  0  0  0  0  0
    9.3458   46.7724  128.7689 C   0  0  0  0  0  0  0  0  0  0  0  0
   10.3550   45.8337  129.0593 C   0  0  0  0  0  0  0  0  0  0  0  0
   10.5317   44.8116  128.2299 N   0  0  0  0  0  0  0  0  0  0  0  0
   11.4848   43.9054  128.4841 C   0  0  0  0  0  0  0  0  0  0  0  0
   12.2471   44.0786  129.6087 C   0  0  0  0  0  0  0  0  0  0  0  0
   12.0716   45.1347  130.4745 C   0  0  0  0  0  0  0  0  0  0  0  0
   11.0928   46.0646  130.2127 C   0  0  0  0  0  0  0  0  0  0  0  0
   10.8537   47.1458  131.0253 C   0  0  0  0  0  0  0  0  0  0  0  0
    9.8757   47.9837  130.6703 N   0  0  0  0  0  0  0  0  0  0  0  0
    8.0949   48.7878  129.2835 N   0  0  0  0  0  0  0  0  0  0  0  0
    8.4556   49.7556  128.9626 H   0  0  0  0  0  0  0  0  0  0  0  0
    3.5563   46.7197  129.6983 C   0  0  0  0  0  0  0  0  0  0  0  0
    4.6733   47.6797  129.5436 C   0  0  0  0  0  0  0  0  0  0  0  0
    6.0212   47.4409  129.5198 C   0  0  0  0  0  0  0  0  0  0  0  0
    6.7051   48.6625  129.3513 C   0  0  0  0  0  0  0  0  0  0  0  0
    5.7220   49.5689  129.2833 N   0  0  0  0  0  0  0  0  0  0  0  0
    4.5259   49.0069  129.3946 N   0  0  0  0  0  0  0  0  0  0  0  0
    3.5994   49.4949  129.3732 H   0  0  0  0  0  0  0  0  0  0  0  0
   11.6227   47.3609  132.1962 N   0  0  0  0  0  0  0  0  0  0  0  0
   12.4773   47.9283  132.1993 H   0  0  0  0  0  0  0  0  0  0  0  0
   11.2209   46.7655  133.4848 C   0  0  0  0  0  0  0  0  0  0  0  0
    9.7774   46.4721  133.3995 C   0  0  0  0  0  0  0  0  0  0  0  0
    9.3991   45.1583  134.1100 C   0  0  0  0  0  0  0  0  0  0  0  0
    9.8486   45.2447  135.5763 C   0  0  0  0  0  0  0  0  0  0  0  0
   10.5135   44.0010  136.0593 C   0  0  0  0  0  0  0  0  0  0  0  0
   11.7305   43.6329  135.2393 C   0  0  0  0  0  0  0  0  0  0  0  0
   11.6423   44.3078  133.8933 C   0  0  0  0  0  0  0  0  0  0  0  0
   12.1553   45.6815  133.8209 C   0  0  0  0  0  0  0  0  0  0  0  0
   10.2234   44.1668  133.4744 N   0  0  0  0  0  0  0  0  0  0  0  0
    9.8522   43.1839  132.5572 C   0  0  0  0  0  0  0  0  0  0  0  0
   10.8756   42.4100  132.2216 O   0  0  0  0  0  0  0  0  0  0  0  0
    8.6489   42.8297  131.9111 C   0  0  0  0  0  0  0  0  0  0  0  0
    8.2603   42.8195  130.6697 C   0  0  0  0  0  0  0  0  0  0  0  0
 13 14  1  0  0  0
 14 15  2  0  0  0
 15 16  1  0  0  0
 16 11  1  0  0  0
 11  1  1  0  0  0
  1  2  2  0  0  0
  2  3  1  0  0  0
  3  4  2  0  0  0
  4  5  1  0  0  0
  5  6  2  0  0  0
  6  7  1  0  0  0
  7  8  2  0  0  0
  8  9  1  0  0  0
  9 20  1  0  0  0
 20 22  1  0  0  0
 22 23  1  0  0  0
 23 24  1  0  0  0
 24 25  1  0  0  0
 25 26  1  0  0  0
 26 27  1  0  0  0
 27 28  1  0  0  0
 28 29  1  0  0  0
 28 30  1  0  0  0
 30 31  1  0  0  0
 31 32  2  0  0  0
 31 33  1  0  0  0
 33 34  2  0  0  0
  9 10  2  0  0  0
 16 17  2  0  0  0
 17 18  1  0  0  0
 18 14  1  0  0  0
 10  1  1  0  0  0
  8  3  1  0  0  0
 29 22  1  0  0  0
 30 24  1  0  0  0
 11 12  1  0  0  0
 20 21  1  0  0  0
 18 19  1  0  0  0
M  END
> <minimizedAffinity>
-0.87535

> <CNNscore>
0.4414550364

> <CNNaffinity>
8.0059528351

> <CNN_VS>
3.5342681408

> <CNNaffinity_variance>
0.2496610582

$$$$
[H]C([H])=C([H])C(=O)N1[C@@]2([H])C([H])([H])C([H])([H])C([H])([H])[C@]1([H])C([H])([H])[C@@]([H])(N([H])c1nc(N([H])c3nn([H])c(C([H])([H])[H])c3[H])c([H])c3nc([H])c([H])c([H])c13)C2([H])[H]


 34 38  0  0  0  0  0  0  0  0999 V2000
   10.6287   44.4110  131.5952 C   0  0  0  0  0  0  0  0  0  0  0  0
   11.8950   43.9150  131.4939 C   0  0  0  0  0  0  0  0  0  0  0  0
   12.7119   44.1567  130.3722 C   0  0  0  0  0  0  0  0  0  0  0  0
   13.9341   43.6373  130.3509 N   0  0  0  0  0  0  0  0  0  0  0  0
   14.7305   43.8528  129.2956 C   0  0  0  0  0  0  0  0  0  0  0  0
   14.2377   44.6130  128.2684 C   0  0  0  0  0  0  0  0  0  0  0  0
   12.9724   45.1556  128.2812 C   0  0  0  0  0  0  0  0  0  0  0  0
   12.1555   44.9338  129.3651 C   0  0  0  0  0  0  0  0  0  0  0  0
   10.8814   45.4390  129.4556 C   0  0  0  0  0  0  0  0  0  0  0  0
   10.1800   45.1579  130.5571 N   0  0  0  0  0  0  0  0  0  0  0  0
    9.8105   44.1735  132.7101 N   0  0  0  0  0  0  0  0  0  0  0  0
    8.7942   43.8878  132.4749 H   0  0  0  0  0  0  0  0  0  0  0  0
   11.8210   43.1149  137.1694 C   0  0  0  0  0  0  0  0  0  0  0  0
   11.0434   43.7306  136.0697 C   0  0  0  0  0  0  0  0  0  0  0  0
   10.9812   43.3732  134.7496 C   0  0  0  0  0  0  0  0  0  0  0  0
   10.1075   44.2494  134.0731 C   0  0  0  0  0  0  0  0  0  0  0  0
    9.6937   45.0867  135.0325 N   0  0  0  0  0  0  0  0  0  0  0  0
   10.2342   44.7944  136.2078 N   0  0  0  0  0  0  0  0  0  0  0  0
   10.0739   45.2952  137.1136 H   0  0  0  0  0  0  0  0  0  0  0  0
   10.3351   46.2277  128.4124 N   0  0  0  0  0  0  0  0  0  0  0  0
   10.3142   45.9143  127.4359 H   0  0  0  0  0  0  0  0  0  0  0  0
    9.7637   47.5590  128.6909 C   0  0  0  0  0  0  0  0  0  0  0  0
    8.4893   47.6508  127.9529 C   0  0  0  0  0  0  0  0  0  0  0  0
    7.4044   48.4099  128.7407 C   0  0  0  0  0  0  0  0  0  0  0  0
    7.9340   49.8105  129.0834 C   0  0  0  0  0  0  0  0  0  0  0  0
    7.6485   50.2169  130.4889 C   0  0  0  0  0  0  0  0  0  0  0  0
    8.2304   49.2579  131.5040 C   0  0  0  0  0  0  0  0  0  0  0  0
    8.4853   47.9284  130.8389 C   0  0  0  0  0  0  0  0  0  0  0  0
    9.7703   47.7862  130.1433 C   0  0  0  0  0  0  0  0  0  0  0  0
    7.2987   47.6852  129.9777 N   0  0  0  0  0  0  0  0  0  0  0  0
    6.2845   46.8257  130.3993 C   0  0  0  0  0  0  0  0  0  0  0  0
    6.4993   46.3734  131.6273 O   0  0  0  0  0  0  0  0  0  0  0  0
    5.0950   46.3321  129.8225 C   0  0  0  0  0  0  0  0  0  0  0  0
    3.8622   46.7465  129.8027 C   0  0  0  0  0  0  0  0  0  0  0  0
 13 14  1  0  0  0
 14 15  2  0  0  0
 15 16  1  0  0  0
 16 11  1  0  0  0
 11  1  1  0  0  0
  1  2  2  0  0  0
  2  3  1  0  0  0
  3  4  2  0  0  0
  4  5  1  0  0  0
  5  6  2  0  0  0
  6  7  1  0  0  0
  7  8  2  0  0  0
  8  9  1  0  0  0
  9 20  1  0  0  0
 20 22  1  0  0  0
 22 23  1  0  0  0
 23 24  1  0  0  0
 24 25  1  0  0  0
 25 26  1  0  0  0
 26 27  1  0  0  0
 27 28  1  0  0  0
 28 29  1  0  0  0
 28 30  1  0  0  0
 30 31  1  0  0  0
 31 32  2  0  0  0
 31 33  1  0  0  0
 33 34  2  0  0  0
  9 10  2  0  0  0
 16 17  2  0  0  0
 17 18  1  0  0  0
 18 14  1  0  0  0
 10  1  1  0  0  0
  8  3  1  0  0  0
 29 22  1  0  0  0
 30 24  1  0  0  0
 11 12  1  0  0  0
 20 21  1  0  0  0
 18 19  1  0  0  0
M  END
> <minimizedAffinity>
9.57621

> <CNNscore>
0.4045092165

> <CNNaffinity>
7.5658416748

> <CNN_VS>
3.0604526997

> <CNNaffinity_variance>
0.8835557699

$$$$
[H]C([H])=C([H])C(=O)N1[C@@]2([H])C([H])([H])C([H])([H])C([H])([H])[C@]1([H])C([H])([H])[C@@]([H])(N([H])c1nc(N([H])c3nn([H])c(C([H])([H])[H])c3[H])c([H])c3nc([H])c([H])c([H])c13)C2([H])[H]


 34 38  0  0  0  0  0  0  0  0999 V2000
    9.4227   48.1810  132.5404 C   0  0  0  0  0  0  0  0  0  0  0  0
   10.7398   48.0970  132.8837 C   0  0  0  0  0  0  0  0  0  0  0  0
   11.2989   46.9347  133.4498 C   0  0  0  0  0  0  0  0  0  0  0  0
   12.5912   46.9340  133.7561 N   0  0  0  0  0  0  0  0  0  0  0  0
   13.1466   45.8409  134.2954 C   0  0  0  0  0  0  0  0  0  0  0  0
   12.3406   44.7546  134.5099 C   0  0  0  0  0  0  0  0  0  0  0  0
   11.0000   44.7456  134.1957 C   0  0  0  0  0  0  0  0  0  0  0  0
   10.4307   45.8685  133.6420 C   0  0  0  0  0  0  0  0  0  0  0  0
    9.1023   45.9408  133.3004 C   0  0  0  0  0  0  0  0  0  0  0  0
    8.6604   47.0840  132.7691 N   0  0  0  0  0  0  0  0  0  0  0  0
    8.8603   49.3361  131.9761 N   0  0  0  0  0  0  0  0  0  0  0  0
    9.1474   50.2618  132.4561 H   0  0  0  0  0  0  0  0  0  0  0  0
    5.7499   48.1432  128.2411 C   0  0  0  0  0  0  0  0  0  0  0  0
    6.5877   48.8819  129.2135 C   0  0  0  0  0  0  0  0  0  0  0  0
    7.3747   48.3944  130.2221 C   0  0  0  0  0  0  0  0  0  0  0  0
    7.9893   49.4722  130.8923 C   0  0  0  0  0  0  0  0  0  0  0  0
    7.5325   50.5504  130.2431 N   0  0  0  0  0  0  0  0  0  0  0  0
    6.7100   50.2193  129.2567 N   0  0  0  0  0  0  0  0  0  0  0  0
    6.2209   50.8740  128.6017 H   0  0  0  0  0  0  0  0  0  0  0  0
    8.2357   44.8389  133.5092 N   0  0  0  0  0  0  0  0  0  0  0  0
    7.5736   44.7974  134.2917 H   0  0  0  0  0  0  0  0  0  0  0  0
    8.2497   43.6818  132.5942 C   0  0  0  0  0  0  0  0  0  0  0  0
    8.1119   44.2076  131.2224 C   0  0  0  0  0  0  0  0  0  0  0  0
    8.9620   43.4258  130.2025 C   0  0  0  0  0  0  0  0  0  0  0  0
    8.5586   41.9447  130.2580 C   0  0  0  0  0  0  0  0  0  0  0  0
    9.7268   41.0187  130.2495 C   0  0  0  0  0  0  0  0  0  0  0  0
   10.6774   41.2669  131.4001 C   0  0  0  0  0  0  0  0  0  0  0  0
   10.4639   42.6647  131.9251 C   0  0  0  0  0  0  0  0  0  0  0  0
    9.4000   42.8277  132.9236 C   0  0  0  0  0  0  0  0  0  0  0  0
   10.3004   43.5175  130.7191 N   0  0  0  0  0  0  0  0  0  0  0  0
   11.3639   44.2882  130.2498 C   0  0  0  0  0  0  0  0  0  0  0  0
   12.4712   44.0796  130.9491 O   0  0  0  0  0  0  0  0  0  0  0  0
   11.5279   45.2302  129.2121 C   0  0  0  0  0  0  0  0  0  0  0  0
   10.7236   45.7562  128.3355 C   0  0  0  0  0  0  0  0  0  0  0  0
 13 14  1  0  0  0
 14 15  2  0  0  0
 15 16  1  0  0  0
 16 11  1  0  0  0
 11  1  1  0  0  0
  1  2  2  0  0  0
  2  3  1  0  0  0
  3  4  2  0  0  0
  4  5  1  0  0  0
  5  6  2  0  0  0
  6  7  1  0  0  0
  7  8  2  0  0  0
  8  9  1  0  0  0
  9 20  1  0  0  0
 20 22  1  0  0  0
 22 23  1  0  0  0
 23 24  1  0  0  0
 24 25  1  0  0  0
 25 26  1  0  0  0
 26 27  1  0  0  0
 27 28  1  0  0  0
 28 29  1  0  0  0
 28 30  1  0  0  0
 30 31  1  0  0  0
 31 32  2  0  0  0
 31 33  1  0  0  0
 33 34  2  0  0  0
  9 10  2  0  0  0
 16 17  2  0  0  0
 17 18  1  0  0  0
 18 14  1  0  0  0
 10  1  1  0  0  0
  8  3  1  0  0  0
 29 22  1  0  0  0
 30 24  1  0  0  0
 11 12  1  0  0  0
 20 21  1  0  0  0
 18 19  1  0  0  0
M  END
> <minimizedAffinity>
-1.53316

> <CNNscore>
0.3576174080

> <CNNaffinity>
8.0556478500

> <CNN_VS>
2.8808398247

> <CNNaffinity_variance>
0.2123491019

$$$$
[H]C([H])=C([H])C(=O)N1[C@@]2([H])C([H])([H])C([H])([H])C([H])([H])[C@]1([H])C([H])([H])[C@@]([H])(N([H])c1nc(N([H])c3nn([H])c(C([H])([H])[H])c3[H])c([H])c3nc([H])c([H])c([H])c13)C2([H])[H]


 34 38  0  0  0  0  0  0  0  0999 V2000
   10.5323   44.1979  131.5273 C   0  0  0  0  0  0  0  0  0  0  0  0
   11.8147   43.7363  131.4847 C   0  0  0  0  0  0  0  0  0  0  0  0
   12.7020   44.0699  130.4429 C   0  0  0  0  0  0  0  0  0  0  0  0
   13.9355   43.5786  130.4753 N   0  0  0  0  0  0  0  0  0  0  0  0
   14.7983   43.8812  129.4963 C   0  0  0  0  0  0  0  0  0  0  0  0
   14.3597   44.6984  128.4885 C   0  0  0  0  0  0  0  0  0  0  0  0
   13.0831   45.2126  128.4461 C   0  0  0  0  0  0  0  0  0  0  0  0
   12.1980   44.9014  129.4517 C   0  0  0  0  0  0  0  0  0  0  0  0
   10.9083   45.3727  129.4835 C   0  0  0  0  0  0  0  0  0  0  0  0
   10.1387   45.0035  130.5110 N   0  0  0  0  0  0  0  0  0  0  0  0
    9.6440   43.8689  132.5626 N   0  0  0  0  0  0  0  0  0  0  0  0
    9.8191   44.3903  133.4938 H   0  0  0  0  0  0  0  0  0  0  0  0
    6.0256   40.8580  134.2624 C   0  0  0  0  0  0  0  0  0  0  0  0
    6.9476   41.6227  133.3917 C   0  0  0  0  0  0  0  0  0  0  0  0
    7.9626   42.4720  133.7424 C   0  0  0  0  0  0  0  0  0  0  0  0
    8.5715   42.9737  132.5736 C   0  0  0  0  0  0  0  0  0  0  0  0
    7.8824   42.3928  131.5835 N   0  0  0  0  0  0  0  0  0  0  0  0
    6.9276   41.5984  132.0484 N   0  0  0  0  0  0  0  0  0  0  0  0
    6.2525   41.0318  131.4825 H   0  0  0  0  0  0  0  0  0  0  0  0
   10.4166   46.2184  128.4579 N   0  0  0  0  0  0  0  0  0  0  0  0
   10.4255   45.9490  127.4681 H   0  0  0  0  0  0  0  0  0  0  0  0
    9.8621   47.5481  128.7752 C   0  0  0  0  0  0  0  0  0  0  0  0
    8.5994   47.6857  128.0242 C   0  0  0  0  0  0  0  0  0  0  0  0
    7.5157   48.4341  128.8238 C   0  0  0  0  0  0  0  0  0  0  0  0
    8.0621   49.8133  129.2222 C   0  0  0  0  0  0  0  0  0  0  0  0
    7.7638   50.1752  130.6372 C   0  0  0  0  0  0  0  0  0  0  0  0
    8.3169   49.1723  131.6257 C   0  0  0  0  0  0  0  0  0  0  0  0
    8.5603   47.8629  130.9179 C   0  0  0  0  0  0  0  0  0  0  0  0
    9.8524   47.7245  130.2346 C   0  0  0  0  0  0  0  0  0  0  0  0
    7.3820   47.6686  130.0333 N   0  0  0  0  0  0  0  0  0  0  0  0
    6.3490   46.8111  130.4113 C   0  0  0  0  0  0  0  0  0  0  0  0
    6.5401   46.3131  131.6255 O   0  0  0  0  0  0  0  0  0  0  0  0
    5.1601   46.3568  129.8022 C   0  0  0  0  0  0  0  0  0  0  0  0
    3.9180   46.7403  129.8502 C   0  0  0  0  0  0  0  0  0  0  0  0
 13 14  1  0  0  0
 14 15  2  0  0  0
 15 16  1  0  0  0
 16 11  1  0  0  0
 11  1  1  0  0  0
  1  2  2  0  0  0
  2  3  1  0  0  0
  3  4  2  0  0  0
  4  5  1  0  0  0
  5  6  2  0  0  0
  6  7  1  0  0  0
  7  8  2  0  0  0
  8  9  1  0  0  0
  9 20  1  0  0  0
 20 22  1  0  0  0
 22 23  1  0  0  0
 23 24  1  0  0  0
 24 25  1  0  0  0
 25 26  1  0  0  0
 26 27  1  0  0  0
 27 28  1  0  0  0
 28 29  1  0  0  0
 28 30  1  0  0  0
 30 31  1  0  0  0
 31 32  2  0  0  0
 31 33  1  0  0  0
 33 34  2  0  0  0
  9 10  2  0  0  0
 16 17  2  0  0  0
 17 18  1  0  0  0
 18 14  1  0  0  0
 10  1  1  0  0  0
  8  3  1  0  0  0
 29 22  1  0  0  0
 30 24  1  0  0  0
 11 12  1  0  0  0
 20 21  1  0  0  0
 18 19  1  0  0  0
M  END
> <minimizedAffinity>
9.68043

> <CNNscore>
0.3536005914

> <CNNaffinity>
7.3360414505

> <CNN_VS>
2.5940287113

> <CNNaffinity_variance>
0.4486738145

$$$$
[H]C([H])=C([H])C(=O)N1[C@@]2([H])C([H])([H])C([H])([H])C([H])([H])[C@]1([H])C([H])([H])[C@@]([H])(N([H])c1nc(N([H])c3nn([H])c(C([H])([H])[H])c3[H])c([H])c3nc([H])c([H])c([H])c13)C2([H])[H]


 34 38  0  0  0  0  0  0  0  0999 V2000
    9.2935   48.4034  132.2679 C   0  0  0  0  0  0  0  0  0  0  0  0
   10.3145   48.0792  133.1117 C   0  0  0  0  0  0  0  0  0  0  0  0
   10.5608   46.7549  133.5235 C   0  0  0  0  0  0  0  0  0  0  0  0
   11.5762   46.5228  134.3476 N   0  0  0  0  0  0  0  0  0  0  0  0
   11.8312   45.2721  134.7536 C   0  0  0  0  0  0  0  0  0  0  0  0
   11.0174   44.2721  134.2913 C   0  0  0  0  0  0  0  0  0  0  0  0
    9.9626   44.5027  133.4369 C   0  0  0  0  0  0  0  0  0  0  0  0
    9.7016   45.7872  133.0206 C   0  0  0  0  0  0  0  0  0  0  0  0
    8.6698   46.1012  132.1700 C   0  0  0  0  0  0  0  0  0  0  0  0
    8.5124   47.3844  131.8339 N   0  0  0  0  0  0  0  0  0  0  0  0
    9.0435   49.7208  131.8543 N   0  0  0  0  0  0  0  0  0  0  0  0
    9.6744   50.4687  132.3149 H   0  0  0  0  0  0  0  0  0  0  0  0
    4.8472   50.1354  129.1585 C   0  0  0  0  0  0  0  0  0  0  0  0
    6.1893   50.3565  129.7442 C   0  0  0  0  0  0  0  0  0  0  0  0
    6.8504   49.6222  130.6919 C   0  0  0  0  0  0  0  0  0  0  0  0
    8.1070   50.2117  130.9412 C   0  0  0  0  0  0  0  0  0  0  0  0
    8.1269   51.2719  130.1238 N   0  0  0  0  0  0  0  0  0  0  0  0
    7.0094   51.3691  129.4163 N   0  0  0  0  0  0  0  0  0  0  0  0
    6.7771   52.1059  128.7091 H   0  0  0  0  0  0  0  0  0  0  0  0
    7.8045   45.0950  131.6723 N   0  0  0  0  0  0  0  0  0  0  0  0
    6.9667   44.7873  132.1779 H   0  0  0  0  0  0  0  0  0  0  0  0
    8.0775   44.4333  130.3824 C   0  0  0  0  0  0  0  0  0  0  0  0
    9.0488   45.2741  129.6566 C   0  0  0  0  0  0  0  0  0  0  0  0
   10.0770   44.4410  128.8675 C   0  0  0  0  0  0  0  0  0  0  0  0
    9.3233   43.5216  127.8949 C   0  0  0  0  0  0  0  0  0  0  0  0
    9.8565   42.1297  127.8724 C   0  0  0  0  0  0  0  0  0  0  0  0
    9.8201   41.4681  129.2324 C   0  0  0  0  0  0  0  0  0  0  0  0
    9.7402   42.5325  130.2981 C   0  0  0  0  0  0  0  0  0  0  0  0
    8.3956   43.0195  130.6299 C   0  0  0  0  0  0  0  0  0  0  0  0
   10.6811   43.5972  129.8623 N   0  0  0  0  0  0  0  0  0  0  0  0
   11.9518   43.6920  130.4294 C   0  0  0  0  0  0  0  0  0  0  0  0
   12.1867   42.7044  131.2826 O   0  0  0  0  0  0  0  0  0  0  0  0
   13.0324   44.5906  130.3041 C   0  0  0  0  0  0  0  0  0  0  0  0
   14.1212   44.5990  129.5923 C   0  0  0  0  0  0  0  0  0  0  0  0
 13 14  1  0  0  0
 14 15  2  0  0  0
 15 16  1  0  0  0
 16 11  1  0  0  0
 11  1  1  0  0  0
  1  2  2  0  0  0
  2  3  1  0  0  0
  3  4  2  0  0  0
  4  5  1  0  0  0
  5  6  2  0  0  0
  6  7  1  0  0  0
  7  8  2  0  0  0
  8  9  1  0  0  0
  9 20  1  0  0  0
 20 22  1  0  0  0
 22 23  1  0  0  0
 23 24  1  0  0  0
 24 25  1  0  0  0
 25 26  1  0  0  0
 26 27  1  0  0  0
 27 28  1  0  0  0
 28 29  1  0  0  0
 28 30  1  0  0  0
 30 31  1  0  0  0
 31 32  2  0  0  0
 31 33  1  0  0  0
 33 34  2  0  0  0
  9 10  2  0  0  0
 16 17  2  0  0  0
 17 18  1  0  0  0
 18 14  1  0  0  0
 10  1  1  0  0  0
  8  3  1  0  0  0
 29 22  1  0  0  0
 30 24  1  0  0  0
 11 12  1  0  0  0
 20 21  1  0  0  0
 18 19  1  0  0  0
M  END
> <minimizedAffinity>
-0.22102

> <CNNscore>
0.2912900746

> <CNNaffinity>
8.0425930023

> <CNN_VS>
2.3427274227

> <CNNaffinity_variance>
0.7017572522

$$$$
[H]C([H])=C([H])C(=O)N1[C@@]2([H])C([H])([H])C([H])([H])C([H])([H])[C@]1([H])C([H])([H])[C@@]([H])(N([H])c1nc(N([H])c3nn([H])c(C([H])([H])[H])c3[H])c([H])c3nc([H])c([H])c([H])c13)C2([H])[H]


 34 38  0  0  0  0  0  0  0  0999 V2000
    7.9934   45.4523  132.5931 C   0  0  0  0  0  0  0  0  0  0  0  0
    6.9166   45.6771  131.7872 C   0  0  0  0  0  0  0  0  0  0  0  0
    6.9675   46.5575  130.6889 C   0  0  0  0  0  0  0  0  0  0  0  0
    5.8742   46.7212  129.9528 N   0  0  0  0  0  0  0  0  0  0  0  0
    5.8971   47.5528  128.9030 C   0  0  0  0  0  0  0  0  0  0  0  0
    7.0690   48.2080  128.6328 C   0  0  0  0  0  0  0  0  0  0  0  0
    8.2075   48.0450  129.3898 C   0  0  0  0  0  0  0  0  0  0  0  0
    8.1830   47.1909  130.4674 C   0  0  0  0  0  0  0  0  0  0  0  0
    9.2746   46.9728  131.2720 C   0  0  0  0  0  0  0  0  0  0  0  0
    9.1332   46.1204  132.2908 N   0  0  0  0  0  0  0  0  0  0  0  0
    7.9485   44.5764  133.6885 N   0  0  0  0  0  0  0  0  0  0  0  0
    8.9119   44.2116  134.0179 H   0  0  0  0  0  0  0  0  0  0  0  0
    3.7963   44.5503  136.4825 C   0  0  0  0  0  0  0  0  0  0  0  0
    4.9741   44.1458  135.6812 C   0  0  0  0  0  0  0  0  0  0  0  0
    5.9123   44.9308  135.0665 C   0  0  0  0  0  0  0  0  0  0  0  0
    6.8527   44.1055  134.4160 C   0  0  0  0  0  0  0  0  0  0  0  0
    6.4214   42.8656  134.6796 N   0  0  0  0  0  0  0  0  0  0  0  0
    5.3213   42.8742  135.4202 N   0  0  0  0  0  0  0  0  0  0  0  0
    4.7883   42.0395  135.7610 H   0  0  0  0  0  0  0  0  0  0  0  0
   10.5040   47.6339  131.0265 N   0  0  0  0  0  0  0  0  0  0  0  0
   10.6209   48.6458  131.1476 H   0  0  0  0  0  0  0  0  0  0  0  0
   11.6903   46.8815  130.5759 C   0  0  0  0  0  0  0  0  0  0  0  0
   12.1383   46.0513  131.7105 C   0  0  0  0  0  0  0  0  0  0  0  0
   12.6512   44.6687  131.2639 C   0  0  0  0  0  0  0  0  0  0  0  0
   13.7924   44.8692  130.2555 C   0  0  0  0  0  0  0  0  0  0  0  0
   13.6946   43.9668  129.0730 C   0  0  0  0  0  0  0  0  0  0  0  0
   12.3950   44.1336  128.3168 C   0  0  0  0  0  0  0  0  0  0  0  0
   11.3725   44.7700  129.2249 C   0  0  0  0  0  0  0  0  0  0  0  0
   11.3858   46.2366  129.2904 C   0  0  0  0  0  0  0  0  0  0  0  0
   11.5452   44.1019  130.5412 N   0  0  0  0  0  0  0  0  0  0  0  0
   10.6747   43.0868  130.9374 C   0  0  0  0  0  0  0  0  0  0  0  0
    9.8005   42.7869  129.9864 O   0  0  0  0  0  0  0  0  0  0  0  0
   10.5134   42.3152  132.1077 C   0  0  0  0  0  0  0  0  0  0  0  0
    9.7520   42.4164  133.1575 C   0  0  0  0  0  0  0  0  0  0  0  0
 13 14  1  0  0  0
 14 15  2  0  0  0
 15 16  1  0  0  0
 16 11  1  0  0  0
 11  1  1  0  0  0
  1  2  2  0  0  0
  2  3  1  0  0  0
  3  4  2  0  0  0
  4  5  1  0  0  0
  5  6  2  0  0  0
  6  7  1  0  0  0
  7  8  2  0  0  0
  8  9  1  0  0  0
  9 20  1  0  0  0
 20 22  1  0  0  0
 22 23  1  0  0  0
 23 24  1  0  0  0
 24 25  1  0  0  0
 25 26  1  0  0  0
 26 27  1  0  0  0
 27 28  1  0  0  0
 28 29  1  0  0  0
 28 30  1  0  0  0
 30 31  1  0  0  0
 31 32  2  0  0  0
 31 33  1  0  0  0
 33 34  2  0  0  0
  9 10  2  0  0  0
 16 17  2  0  0  0
 17 18  1  0  0  0
 18 14  1  0  0  0
 10  1  1  0  0  0
  8  3  1  0  0  0
 29 22  1  0  0  0
 30 24  1  0  0  0
 11 12  1  0  0  0
 20 21  1  0  0  0
 18 19  1  0  0  0
M  END
> <minimizedAffinity>
22.30141

> <CNNscore>
0.2797772586

> <CNNaffinity>
7.4686508179

> <CNN_VS>
2.0895586014

> <CNNaffinity_variance>
0.3220279217

$$$$
[H]C([H])=C([H])C(=O)N1[C@@]2([H])C([H])([H])C([H])([H])C([H])([H])[C@]1([H])C([H])([H])[C@@]([H])(N([H])c1nc(N([H])c3nn([H])c(C([H])([H])[H])c3[H])c([H])c3nc([H])c([H])c([H])c13)C2([H])[H]


 34 38  0  0  0  0  0  0  0  0999 V2000
    9.7866   48.1325  132.4450 C   0  0  0  0  0  0  0  0  0  0  0  0
    9.4731   47.6091  133.6646 C   0  0  0  0  0  0  0  0  0  0  0  0
   10.1025   46.4571  134.1751 C   0  0  0  0  0  0  0  0  0  0  0  0
    9.7397   46.0109  135.3723 N   0  0  0  0  0  0  0  0  0  0  0  0
   10.3233   44.9174  135.8799 C   0  0  0  0  0  0  0  0  0  0  0  0
   11.2851   44.2986  135.1263 C   0  0  0  0  0  0  0  0  0  0  0  0
   11.6680   44.7534  133.8844 C   0  0  0  0  0  0  0  0  0  0  0  0
   11.0682   45.8763  133.3640 C   0  0  0  0  0  0  0  0  0  0  0  0
   11.3927   46.3940  132.1339 C   0  0  0  0  0  0  0  0  0  0  0  0
   10.7433   47.4899  131.7318 N   0  0  0  0  0  0  0  0  0  0  0  0
    9.1630   49.2798  131.9314 N   0  0  0  0  0  0  0  0  0  0  0  0
    9.4931   50.2112  132.3708 H   0  0  0  0  0  0  0  0  0  0  0  0
    5.7544   48.0357  128.4844 C   0  0  0  0  0  0  0  0  0  0  0  0
    6.6508   48.7884  129.3916 C   0  0  0  0  0  0  0  0  0  0  0  0
    7.5543   48.3134  130.3039 C   0  0  0  0  0  0  0  0  0  0  0  0
    8.1840   49.4018  130.9422 C   0  0  0  0  0  0  0  0  0  0  0  0
    7.6184   50.4732  130.3722 N   0  0  0  0  0  0  0  0  0  0  0  0
    6.7179   50.1286  129.4616 N   0  0  0  0  0  0  0  0  0  0  0  0
    6.1382   50.7757  128.8767 H   0  0  0  0  0  0  0  0  0  0  0  0
   12.3806   45.7808  131.3234 N   0  0  0  0  0  0  0  0  0  0  0  0
   13.3854   45.8993  131.4926 H   0  0  0  0  0  0  0  0  0  0  0  0
   11.9994   44.9314  130.1791 C   0  0  0  0  0  0  0  0  0  0  0  0
   11.7125   43.5851  130.7104 C   0  0  0  0  0  0  0  0  0  0  0  0
   10.5309   42.9062  129.9915 C   0  0  0  0  0  0  0  0  0  0  0  0
   10.8412   42.8406  128.4885 C   0  0  0  0  0  0  0  0  0  0  0  0
    9.6813   43.2229  127.6337 C   0  0  0  0  0  0  0  0  0  0  0  0
    9.1755   44.6185  127.9255 C   0  0  0  0  0  0  0  0  0  0  0  0
    9.6317   45.0321  129.3023 C   0  0  0  0  0  0  0  0  0  0  0  0
   10.9711   45.6265  129.3912 C   0  0  0  0  0  0  0  0  0  0  0  0
    9.4427   43.8310  130.1569 N   0  0  0  0  0  0  0  0  0  0  0  0
    8.3322   43.7279  130.9944 C   0  0  0  0  0  0  0  0  0  0  0  0
    7.5038   44.7525  130.8443 O   0  0  0  0  0  0  0  0  0  0  0  0
    7.8945   42.7921  131.9555 C   0  0  0  0  0  0  0  0  0  0  0  0
    8.2188   42.5493  133.1916 C   0  0  0  0  0  0  0  0  0  0  0  0
 13 14  1  0  0  0
 14 15  2  0  0  0
 15 16  1  0  0  0
 16 11  1  0  0  0
 11  1  1  0  0  0
  1  2  2  0  0  0
  2  3  1  0  0  0
  3  4  2  0  0  0
  4  5  1  0  0  0
  5  6  2  0  0  0
  6  7  1  0  0  0
  7  8  2  0  0  0
  8  9  1  0  0  0
  9 20  1  0  0  0
 20 22  1  0  0  0
 22 23  1  0  0  0
 23 24  1  0  0  0
 24 25  1  0  0  0
 25 26  1  0  0  0
 26 27  1  0  0  0
 27 28  1  0  0  0
 28 29  1  0  0  0
 28 30  1  0  0  0
 30 31  1  0  0  0
 31 32  2  0  0  0
 31 33  1  0  0  0
 33 34  2  0  0  0
  9 10  2  0  0  0
 16 17  2  0  0  0
 17 18  1  0  0  0
 18 14  1  0  0  0
 10  1  1  0  0  0
  8  3  1  0  0  0
 29 22  1  0  0  0
 30 24  1  0  0  0
 11 12  1  0  0  0
 20 21  1  0  0  0
 18 19  1  0  0  0
M  END
> <minimizedAffinity>
-4.56813

> <CNNscore>
0.2639452815

> <CNNaffinity>
7.9204802513

> <CNN_VS>
2.0905733109

> <CNNaffinity_variance>
0.0623328611

$$$$
[H]C([H])=C([H])C(=O)N1[C@@]2([H])C([H])([H])C([H])([H])C([H])([H])[C@]1([H])C([H])([H])[C@@]([H])(N([H])c1nc(N([H])c3nn([H])c(C([H])([H])[H])c3[H])c([H])c3nc([H])c([H])c([H])c13)C2([H])[H]


 34 38  0  0  0  0  0  0  0  0999 V2000
    9.3409   48.9736  131.1476 C   0  0  0  0  0  0  0  0  0  0  0  0
    9.6256   48.9309  132.4805 C   0  0  0  0  0  0  0  0  0  0  0  0
   10.5468   48.0154  133.0258 C   0  0  0  0  0  0  0  0  0  0  0  0
   10.7682   48.0385  134.3351 N   0  0  0  0  0  0  0  0  0  0  0  0
   11.6396   47.1782  134.8780 C   0  0  0  0  0  0  0  0  0  0  0  0
   12.2735   46.2982  134.0416 C   0  0  0  0  0  0  0  0  0  0  0  0
   12.0507   46.2666  132.6832 C   0  0  0  0  0  0  0  0  0  0  0  0
   11.1558   47.1503  132.1268 C   0  0  0  0  0  0  0  0  0  0  0  0
   10.8774   47.1835  130.7822 C   0  0  0  0  0  0  0  0  0  0  0  0
    9.9898   48.0859  130.3553 N   0  0  0  0  0  0  0  0  0  0  0  0
    8.4242   49.8833  130.5988 N   0  0  0  0  0  0  0  0  0  0  0  0
    8.7582   50.9119  130.5850 H   0  0  0  0  0  0  0  0  0  0  0  0
    4.4478   47.5150  128.6943 C   0  0  0  0  0  0  0  0  0  0  0  0
    5.3764   48.5466  129.2106 C   0  0  0  0  0  0  0  0  0  0  0  0
    6.6519   48.4012  129.6862 C   0  0  0  0  0  0  0  0  0  0  0  0
    7.1502   49.6636  130.0692 C   0  0  0  0  0  0  0  0  0  0  0  0
    6.1386   50.4982  129.7995 N   0  0  0  0  0  0  0  0  0  0  0  0
    5.0925   49.8572  129.2959 N   0  0  0  0  0  0  0  0  0  0  0  0
    4.1798   50.2794  129.0032 H   0  0  0  0  0  0  0  0  0  0  0  0
   11.5107   46.2876  129.8850 N   0  0  0  0  0  0  0  0  0  0  0  0
   12.3588   46.5352  129.3637 H   0  0  0  0  0  0  0  0  0  0  0  0
   10.9665   44.9356  129.6565 C   0  0  0  0  0  0  0  0  0  0  0  0
   11.7309   44.0065  130.5106 C   0  0  0  0  0  0  0  0  0  0  0  0
   10.8496   42.8922  131.1070 C   0  0  0  0  0  0  0  0  0  0  0  0
   10.1684   42.1350  129.9572 C   0  0  0  0  0  0  0  0  0  0  0  0
    8.7245   41.8632  130.2092 C   0  0  0  0  0  0  0  0  0  0  0  0
    7.9256   43.1255  130.4489 C   0  0  0  0  0  0  0  0  0  0  0  0
    8.8623   44.2318  130.8656 C   0  0  0  0  0  0  0  0  0  0  0  0
    9.5023   44.9841  129.7794 C   0  0  0  0  0  0  0  0  0  0  0  0
    9.8183   43.6021  131.8133 N   0  0  0  0  0  0  0  0  0  0  0  0
    9.6589   43.7647  133.1893 C   0  0  0  0  0  0  0  0  0  0  0  0
    8.5570   44.4420  133.4821 O   0  0  0  0  0  0  0  0  0  0  0  0
   10.3958   43.3776  134.3287 C   0  0  0  0  0  0  0  0  0  0  0  0
   11.6477   43.4729  134.6689 C   0  0  0  0  0  0  0  0  0  0  0  0
 13 14  1  0  0  0
 14 15  2  0  0  0
 15 16  1  0  0  0
 16 11  1  0  0  0
 11  1  1  0  0  0
  1  2  2  0  0  0
  2  3  1  0  0  0
  3  4  2  0  0  0
  4  5  1  0  0  0
  5  6  2  0  0  0
  6  7  1  0  0  0
  7  8  2  0  0  0
  8  9  1  0  0  0
  9 20  1  0  0  0
 20 22  1  0  0  0
 22 23  1  0  0  0
 23 24  1  0  0  0
 24 25  1  0  0  0
 25 26  1  0  0  0
 26 27  1  0  0  0
 27 28  1  0  0  0
 28 29  1  0  0  0
 28 30  1  0  0  0
 30 31  1  0  0  0
 31 32  2  0  0  0
 31 33  1  0  0  0
 33 34  2  0  0  0
  9 10  2  0  0  0
 16 17  2  0  0  0
 17 18  1  0  0  0
 18 14  1  0  0  0
 10  1  1  0  0  0
  8  3  1  0  0  0
 29 22  1  0  0  0
 30 24  1  0  0  0
 11 12  1  0  0  0
 20 21  1  0  0  0
 18 19  1  0  0  0
M  END
> <minimizedAffinity>
0.22104

> <CNNscore>
0.2079461664

> <CNNaffinity>
7.7811865807

> <CNN_VS>
1.6180678606

> <CNNaffinity_variance>
0.1825611144

$$$$
[H]C([H])=C([H])C(=O)N1[C@@]2([H])C([H])([H])C([H])([H])C([H])([H])[C@]1([H])C([H])([H])[C@@]([H])(N([H])c1nc(N([H])c3nn([H])c(C([H])([H])[H])c3[H])c([H])c3nc([H])c([H])c([H])c13)C2([H])[H]


 34 38  0  0  0  0  0  0  0  0999 V2000
    8.1937   46.3173  130.3681 C   0  0  0  0  0  0  0  0  0  0  0  0
    8.4959   47.6043  130.0336 C   0  0  0  0  0  0  0  0  0  0  0  0
    8.7944   48.5844  131.0001 C   0  0  0  0  0  0  0  0  0  0  0  0
    9.0787   49.8157  130.5916 N   0  0  0  0  0  0  0  0  0  0  0  0
    9.3660   50.7657  131.4911 C   0  0  0  0  0  0  0  0  0  0  0  0
    9.3528   50.4162  132.8154 C   0  0  0  0  0  0  0  0  0  0  0  0
    9.0594   49.1426  133.2487 C   0  0  0  0  0  0  0  0  0  0  0  0
    8.7646   48.1680  132.3243 C   0  0  0  0  0  0  0  0  0  0  0  0
    8.4616   46.8747  132.6738 C   0  0  0  0  0  0  0  0  0  0  0  0
    8.1918   46.0135  131.6889 N   0  0  0  0  0  0  0  0  0  0  0  0
    7.8956   45.3368  129.4096 N   0  0  0  0  0  0  0  0  0  0  0  0
    6.8426   45.2192  129.1927 H   0  0  0  0  0  0  0  0  0  0  0  0
   11.9948   43.6111  127.1147 C   0  0  0  0  0  0  0  0  0  0  0  0
   10.6292   43.7552  127.6690 C   0  0  0  0  0  0  0  0  0  0  0  0
   10.0866   44.7984  128.3704 C   0  0  0  0  0  0  0  0  0  0  0  0
    8.7489   44.4923  128.6951 C   0  0  0  0  0  0  0  0  0  0  0  0
    8.5654   43.2759  128.1665 N   0  0  0  0  0  0  0  0  0  0  0  0
    9.6591   42.8316  127.5621 N   0  0  0  0  0  0  0  0  0  0  0  0
    9.7758   41.9131  127.0726 H   0  0  0  0  0  0  0  0  0  0  0  0
    8.4351   46.4750  134.0334 N   0  0  0  0  0  0  0  0  0  0  0  0
    7.6387   46.6679  134.6505 H   0  0  0  0  0  0  0  0  0  0  0  0
    9.5737   45.7523  134.6313 C   0  0  0  0  0  0  0  0  0  0  0  0
    9.3130   44.3098  134.4630 C   0  0  0  0  0  0  0  0  0  0  0  0
   10.5933   43.5108  134.1529 C   0  0  0  0  0  0  0  0  0  0  0  0
   11.6081   43.7498  135.2809 C   0  0  0  0  0  0  0  0  0  0  0  0
   12.9906   43.9991  134.7821 C   0  0  0  0  0  0  0  0  0  0  0  0
   13.0697   45.1880  133.8498 C   0  0  0  0  0  0  0  0  0  0  0  0
   11.6974   45.4707  133.2914 C   0  0  0  0  0  0  0  0  0  0  0  0
   10.8255   46.3212  134.1111 C   0  0  0  0  0  0  0  0  0  0  0  0
   11.1204   44.1389  132.9721 N   0  0  0  0  0  0  0  0  0  0  0  0
   11.1172   43.6671  131.6596 C   0  0  0  0  0  0  0  0  0  0  0  0
   11.7410   44.4974  130.8349 O   0  0  0  0  0  0  0  0  0  0  0  0
   10.6059   42.5201  131.0161 C   0  0  0  0  0  0  0  0  0  0  0  0
    9.4214   41.9907  130.9222 C   0  0  0  0  0  0  0  0  0  0  0  0
 13 14  1  0  0  0
 14 15  2  0  0  0
 15 16  1  0  0  0
 16 11  1  0  0  0
 11  1  1  0  0  0
  1  2  2  0  0  0
  2  3  1  0  0  0
  3  4  2  0  0  0
  4  5  1  0  0  0
  5  6  2  0  0  0
  6  7  1  0  0  0
  7  8  2  0  0  0
  8  9  1  0  0  0
  9 20  1  0  0  0
 20 22  1  0  0  0
 22 23  1  0  0  0
 23 24  1  0  0  0
 24 25  1  0  0  0
 25 26  1  0  0  0
 26 27  1  0  0  0
 27 28  1  0  0  0
 28 29  1  0  0  0
 28 30  1  0  0  0
 30 31  1  0  0  0
 31 32  2  0  0  0
 31 33  1  0  0  0
 33 34  2  0  0  0
  9 10  2  0  0  0
 16 17  2  0  0  0
 17 18  1  0  0  0
 18 14  1  0  0  0
 10  1  1  0  0  0
  8  3  1  0  0  0
 29 22  1  0  0  0
 30 24  1  0  0  0
 11 12  1  0  0  0
 20 21  1  0  0  0
 18 19  1  0  0  0
M  END
> <minimizedAffinity>
-0.34150

> <CNNscore>
0.2056402117

> <CNNaffinity>
7.7492051125

> <CNN_VS>
1.5935481787

> <CNNaffinity_variance>
0.2180332839

$$$$
