[H]O[C@@]1([H])C([H])([H])C([H])([H])[C@]2([H])[C@]1(C([H])([H])[H])C([H])([H])C([H])([H])[C@]1([H])[C@]3(C([H])([H])[H])C(=C([H])C(=O)C([H])([H])C3([H])[H])C([H])([H])C([H])([H])[C@@]21[H]


 22 25  0  0  0  0  0  0  0  0999 V2000
   11.0882   43.6567  131.1980 C   0  0  0  0  0  0  0  0  0  0  0  0
   10.1697   44.1369  132.2896 C   0  0  0  0  0  0  0  0  0  0  0  0
    8.7321   44.0797  131.9008 C   0  0  0  0  0  0  0  0  0  0  0  0
    8.5115   45.0429  130.7611 C   0  0  0  0  0  0  0  0  0  0  0  0
    8.8049   46.4533  131.2272 C   0  0  0  0  0  0  0  0  0  0  0  0
   10.2428   46.5916  131.7231 C   0  0  0  0  0  0  0  0  0  0  0  0
   10.3396   47.9230  132.4554 C   0  0  0  0  0  0  0  0  0  0  0  0
    9.9010   49.0796  131.6306 C   0  0  0  0  0  0  0  0  0  0  0  0
    8.7201   48.8219  130.7931 C   0  0  0  0  0  0  0  0  0  0  0  0
    7.8622   49.8124  130.6127 C   0  0  0  0  0  0  0  0  0  0  0  0
    6.6666   49.6695  129.8075 C   0  0  0  0  0  0  0  0  0  0  0  0
    5.6945   50.4487  129.8867 O   0  0  0  0  0  0  0  0  0  0  0  0
    6.6553   48.5073  128.8488 C   0  0  0  0  0  0  0  0  0  0  0  0
    7.1290   47.3093  129.6465 C   0  0  0  0  0  0  0  0  0  0  0  0
    8.5199   47.4748  130.1774 C   0  0  0  0  0  0  0  0  0  0  0  0
    9.4833   47.3611  129.0134 C   0  0  0  0  0  0  0  0  0  0  0  0
   10.4849   45.5480  132.7340 C   0  0  0  0  0  0  0  0  0  0  0  0
   11.8787   45.4007  133.2201 C   0  0  0  0  0  0  0  0  0  0  0  0
   11.8227   44.0569  133.9510 C   0  0  0  0  0  0  0  0  0  0  0  0
   10.4707   43.4608  133.6108 C   0  0  0  0  0  0  0  0  0  0  0  0
   10.4522   42.1083  133.5728 O   0  0  0  0  0  0  0  0  0  0  0  0
   10.8053   41.6796  132.7757 H   0  0  0  0  0  0  0  0  0  0  0  0
  2  1  1  0  0  0
  2  3  1  0  0  0
  3  4  1  0  0  0
  4  5  1  0  0  0
  5  6  1  0  0  0
  6  7  1  0  0  0
  7  8  1  0  0  0
  8  9  1  0  0  0
  9 10  2  0  0  0
 10 11  1  0  0  0
 11 12  2  0  0  0
 11 13  1  0  0  0
 13 14  1  0  0  0
 14 15  1  0  0  0
 15 16  1  0  0  0
  6 17  1  0  0  0
 17 18  1  0  0  0
 18 19  1  0  0  0
 19 20  1  0  0  0
 20 21  1  0  0  0
 17  2  1  0  0  0
 20  2  1  0  0  0
 15  5  1  0  0  0
 15  9  1  0  0  0
 21 22  1  0  0  0
M  END
> <minimizedAffinity>
-10.37228

> <CNNscore>
0.8651690483

> <CNNaffinity>
7.7974982262

> <CNN_VS>
6.7461543083

> <CNNaffinity_variance>
0.5515527725

$$$$
[H]O[C@@]1([H])C([H])([H])C([H])([H])[C@]2([H])[C@]1(C([H])([H])[H])C([H])([H])C([H])([H])[C@]1([H])[C@]3(C([H])([H])[H])C(=C([H])C(=O)C([H])([H])C3([H])[H])C([H])([H])C([H])([H])[C@@]21[H]


 22 25  0  0  0  0  0  0  0  0999 V2000
    7.2264   48.7019  131.6727 C   0  0  0  0  0  0  0  0  0  0  0  0
    7.6725   47.9994  130.4183 C   0  0  0  0  0  0  0  0  0  0  0  0
    7.0666   46.6462  130.2682 C   0  0  0  0  0  0  0  0  0  0  0  0
    7.5663   45.7763  131.3947 C   0  0  0  0  0  0  0  0  0  0  0  0
    9.0685   45.6210  131.2853 C   0  0  0  0  0  0  0  0  0  0  0  0
    9.7775   46.9722  131.3491 C   0  0  0  0  0  0  0  0  0  0  0  0
   11.2183   46.7450  130.9129 C   0  0  0  0  0  0  0  0  0  0  0  0
   11.9115   45.6931  131.7024 C   0  0  0  0  0  0  0  0  0  0  0  0
   11.0816   44.5228  132.0253 C   0  0  0  0  0  0  0  0  0  0  0  0
   11.6670   43.3369  132.0473 C   0  0  0  0  0  0  0  0  0  0  0  0
   10.9458   42.1185  132.3530 C   0  0  0  0  0  0  0  0  0  0  0  0
   11.3734   40.9822  132.0624 O   0  0  0  0  0  0  0  0  0  0  0  0
    9.6243   42.2958  133.0547 C   0  0  0  0  0  0  0  0  0  0  0  0
    8.8971   43.3874  132.2960 C   0  0  0  0  0  0  0  0  0  0  0  0
    9.6256   44.6961  132.3153 C   0  0  0  0  0  0  0  0  0  0  0  0
    9.5076   45.2785  133.7092 C   0  0  0  0  0  0  0  0  0  0  0  0
    9.1763   47.8573  130.3367 C   0  0  0  0  0  0  0  0  0  0  0  0
    9.6087   49.2763  130.3499 C   0  0  0  0  0  0  0  0  0  0  0  0
    8.5654   49.9375  129.4458 C   0  0  0  0  0  0  0  0  0  0  0  0
    7.5085   48.8792  129.1967 C   0  0  0  0  0  0  0  0  0  0  0  0
    6.2607   49.3704  129.0152 O   0  0  0  0  0  0  0  0  0  0  0  0
    5.7647   49.6324  129.8083 H   0  0  0  0  0  0  0  0  0  0  0  0
  2  1  1  0  0  0
  2  3  1  0  0  0
  3  4  1  0  0  0
  4  5  1  0  0  0
  5  6  1  0  0  0
  6  7  1  0  0  0
  7  8  1  0  0  0
  8  9  1  0  0  0
  9 10  2  0  0  0
 10 11  1  0  0  0
 11 12  2  0  0  0
 11 13  1  0  0  0
 13 14  1  0  0  0
 14 15  1  0  0  0
 15 16  1  0  0  0
  6 17  1  0  0  0
 17 18  1  0  0  0
 18 19  1  0  0  0
 19 20  1  0  0  0
 20 21  1  0  0  0
 17  2  1  0  0  0
 20  2  1  0  0  0
 15  5  1  0  0  0
 15  9  1  0  0  0
 21 22  1  0  0  0
M  END
> <minimizedAffinity>
-5.29539

> <CNNscore>
0.5954089165

> <CNNaffinity>
7.3995804787

> <CNN_VS>
4.4057760239

> <CNNaffinity_variance>
0.9438775778

$$$$
[H]O[C@@]1([H])C([H])([H])C([H])([H])[C@]2([H])[C@]1(C([H])([H])[H])C([H])([H])C([H])([H])[C@]1([H])[C@]3(C([H])([H])[H])C(=C([H])C(=O)C([H])([H])C3([H])[H])C([H])([H])C([H])([H])[C@@]21[H]


 22 25  0  0  0  0  0  0  0  0999 V2000
    6.4435   48.5123  129.9962 C   0  0  0  0  0  0  0  0  0  0  0  0
    7.8882   48.8161  129.7024 C   0  0  0  0  0  0  0  0  0  0  0  0
    8.5039   47.8379  128.7616 C   0  0  0  0  0  0  0  0  0  0  0  0
    8.5234   46.4860  129.4306 C   0  0  0  0  0  0  0  0  0  0  0  0
    9.3965   46.5460  130.6662 C   0  0  0  0  0  0  0  0  0  0  0  0
    8.8869   47.5856  131.6622 C   0  0  0  0  0  0  0  0  0  0  0  0
    9.9865   47.7966  132.6939 C   0  0  0  0  0  0  0  0  0  0  0  0
   10.4250   46.5367  133.3502 C   0  0  0  0  0  0  0  0  0  0  0  0
   10.5181   45.3774  132.4502 C   0  0  0  0  0  0  0  0  0  0  0  0
   11.4850   44.5016  132.6684 C   0  0  0  0  0  0  0  0  0  0  0  0
   11.6694   43.3246  131.8445 C   0  0  0  0  0  0  0  0  0  0  0  0
   12.7357   42.6763  131.8109 O   0  0  0  0  0  0  0  0  0  0  0  0
   10.4831   42.9132  131.0117 C   0  0  0  0  0  0  0  0  0  0  0  0
    9.9848   44.1810  130.3481 C   0  0  0  0  0  0  0  0  0  0  0  0
    9.5387   45.2183  131.3324 C   0  0  0  0  0  0  0  0  0  0  0  0
    8.2294   44.7568  131.9398 C   0  0  0  0  0  0  0  0  0  0  0  0
    8.7361   48.8683  130.9540 C   0  0  0  0  0  0  0  0  0  0  0  0
    8.0886   49.9724  131.7041 C   0  0  0  0  0  0  0  0  0  0  0  0
    7.7914   50.9830  130.5936 C   0  0  0  0  0  0  0  0  0  0  0  0
    8.0832   50.2608  129.2927 C   0  0  0  0  0  0  0  0  0  0  0  0
    7.3202   50.6624  128.2497 O   0  0  0  0  0  0  0  0  0  0  0  0
    6.4139   50.3160  128.2007 H   0  0  0  0  0  0  0  0  0  0  0  0
  2  1  1  0  0  0
  2  3  1  0  0  0
  3  4  1  0  0  0
  4  5  1  0  0  0
  5  6  1  0  0  0
  6  7  1  0  0  0
  7  8  1  0  0  0
  8  9  1  0  0  0
  9 10  2  0  0  0
 10 11  1  0  0  0
 11 12  2  0  0  0
 11 13  1  0  0  0
 13 14  1  0  0  0
 14 15  1  0  0  0
 15 16  1  0  0  0
  6 17  1  0  0  0
 17 18  1  0  0  0
 18 19  1  0  0  0
 19 20  1  0  0  0
 20 21  1  0  0  0
 17  2  1  0  0  0
 20  2  1  0  0  0
 15  5  1  0  0  0
 15  9  1  0  0  0
 21 22  1  0  0  0
M  END
> <minimizedAffinity>
-6.16188

> <CNNscore>
0.5562701225

> <CNNaffinity>
7.2362885475

> <CNN_VS>
4.0253310204

> <CNNaffinity_variance>
0.5444897413

$$$$
[H]O[C@@]1([H])C([H])([H])C([H])([H])[C@]2([H])[C@]1(C([H])([H])[H])C([H])([H])C([H])([H])[C@]1([H])[C@]3(C([H])([H])[H])C(=C([H])C(=O)C([H])([H])C3([H])[H])C([H])([H])C([H])([H])[C@@]21[H]


 22 25  0  0  0  0  0  0  0  0999 V2000
    6.1506   47.3566  129.9552 C   0  0  0  0  0  0  0  0  0  0  0  0
    7.5659   47.5920  129.5001 C   0  0  0  0  0  0  0  0  0  0  0  0
    8.2704   46.3318  129.1306 C   0  0  0  0  0  0  0  0  0  0  0  0
    8.4013   45.4820  130.3701 C   0  0  0  0  0  0  0  0  0  0  0  0
    9.2567   46.2038  131.3899 C   0  0  0  0  0  0  0  0  0  0  0  0
    8.6521   47.5526  131.7740 C   0  0  0  0  0  0  0  0  0  0  0  0
    9.7217   48.3246  132.5343 C   0  0  0  0  0  0  0  0  0  0  0  0
   10.2621   47.5817  133.7033 C   0  0  0  0  0  0  0  0  0  0  0  0
   10.4614   46.1426  133.4758 C   0  0  0  0  0  0  0  0  0  0  0  0
   11.4984   45.5626  134.0571 C   0  0  0  0  0  0  0  0  0  0  0  0
   11.7894   44.1522  133.9015 C   0  0  0  0  0  0  0  0  0  0  0  0
   12.9078   43.6558  134.1489 O   0  0  0  0  0  0  0  0  0  0  0  0
   10.6492   43.2959  133.4153 C   0  0  0  0  0  0  0  0  0  0  0  0
   10.0487   44.0373  132.2382 C   0  0  0  0  0  0  0  0  0  0  0  0
    9.5076   45.3835  132.6110 C   0  0  0  0  0  0  0  0  0  0  0  0
    8.2384   45.1740  133.4118 C   0  0  0  0  0  0  0  0  0  0  0  0
    8.3968   48.3127  130.5384 C   0  0  0  0  0  0  0  0  0  0  0  0
    7.6511   49.5873  130.6814 C   0  0  0  0  0  0  0  0  0  0  0  0
    7.2764   49.9035  129.2313 C   0  0  0  0  0  0  0  0  0  0  0  0
    7.6390   48.6654  128.4345 C   0  0  0  0  0  0  0  0  0  0  0  0
    6.8520   48.4477  127.3554 O   0  0  0  0  0  0  0  0  0  0  0  0
    5.9792   48.0510  127.5126 H   0  0  0  0  0  0  0  0  0  0  0  0
  2  1  1  0  0  0
  2  3  1  0  0  0
  3  4  1  0  0  0
  4  5  1  0  0  0
  5  6  1  0  0  0
  6  7  1  0  0  0
  7  8  1  0  0  0
  8  9  1  0  0  0
  9 10  2  0  0  0
 10 11  1  0  0  0
 11 12  2  0  0  0
 11 13  1  0  0  0
 13 14  1  0  0  0
 14 15  1  0  0  0
 15 16  1  0  0  0
  6 17  1  0  0  0
 17 18  1  0  0  0
 18 19  1  0  0  0
 19 20  1  0  0  0
 20 21  1  0  0  0
 17  2  1  0  0  0
 20  2  1  0  0  0
 15  5  1  0  0  0
 15  9  1  0  0  0
 21 22  1  0  0  0
M  END
> <minimizedAffinity>
-9.14934

> <CNNscore>
0.5538042188

> <CNNaffinity>
7.1974272728

> <CNN_VS>
3.9859654903

> <CNNaffinity_variance>
0.2086083591

$$$$
[H]O[C@@]1([H])C([H])([H])C([H])([H])[C@]2([H])[C@]1(C([H])([H])[H])C([H])([H])C([H])([H])[C@]1([H])[C@]3(C([H])([H])[H])C(=C([H])C(=O)C([H])([H])C3([H])[H])C([H])([H])C([H])([H])[C@@]21[H]


 22 25  0  0  0  0  0  0  0  0999 V2000
    7.9517   43.9765  133.5084 C   0  0  0  0  0  0  0  0  0  0  0  0
    8.6134   42.7096  133.0359 C   0  0  0  0  0  0  0  0  0  0  0  0
   10.0145   42.5733  133.5249 C   0  0  0  0  0  0  0  0  0  0  0  0
   10.8365   43.6849  132.9213 C   0  0  0  0  0  0  0  0  0  0  0  0
   10.8599   43.5355  131.4147 C   0  0  0  0  0  0  0  0  0  0  0  0
    9.4518   43.5827  130.8253 C   0  0  0  0  0  0  0  0  0  0  0  0
    9.5523   43.1082  129.3821 C   0  0  0  0  0  0  0  0  0  0  0  0
   10.5391   43.8773  128.5789 C   0  0  0  0  0  0  0  0  0  0  0  0
   11.7772   44.2202  129.2944 C   0  0  0  0  0  0  0  0  0  0  0  0
   12.9073   44.2247  128.6071 C   0  0  0  0  0  0  0  0  0  0  0  0
   14.1840   44.5474  129.2106 C   0  0  0  0  0  0  0  0  0  0  0  0
   15.2787   44.2437  128.6930 O   0  0  0  0  0  0  0  0  0  0  0  0
   14.1225   45.2841  130.5234 C   0  0  0  0  0  0  0  0  0  0  0  0
   13.0993   44.5467  131.3632 C   0  0  0  0  0  0  0  0  0  0  0  0
   11.7318   44.5489  130.7518 C   0  0  0  0  0  0  0  0  0  0  0  0
   11.1610   45.9463  130.8833 C   0  0  0  0  0  0  0  0  0  0  0  0
    8.6234   42.5880  131.5282 C   0  0  0  0  0  0  0  0  0  0  0  0
    7.1720   42.5920  131.2214 C   0  0  0  0  0  0  0  0  0  0  0  0
    6.6052   41.7170  132.3421 C   0  0  0  0  0  0  0  0  0  0  0  0
    7.7522   41.4942  133.3086 C   0  0  0  0  0  0  0  0  0  0  0  0
    7.3722   41.3466  134.5990 O   0  0  0  0  0  0  0  0  0  0  0  0
    7.1540   42.1530  135.0948 H   0  0  0  0  0  0  0  0  0  0  0  0
  2  1  1  0  0  0
  2  3  1  0  0  0
  3  4  1  0  0  0
  4  5  1  0  0  0
  5  6  1  0  0  0
  6  7  1  0  0  0
  7  8  1  0  0  0
  8  9  1  0  0  0
  9 10  2  0  0  0
 10 11  1  0  0  0
 11 12  2  0  0  0
 11 13  1  0  0  0
 13 14  1  0  0  0
 14 15  1  0  0  0
 15 16  1  0  0  0
  6 17  1  0  0  0
 17 18  1  0  0  0
 18 19  1  0  0  0
 19 20  1  0  0  0
 20 21  1  0  0  0
 17  2  1  0  0  0
 20  2  1  0  0  0
 15  5  1  0  0  0
 15  9  1  0  0  0
 21 22  1  0  0  0
M  END
> <minimizedAffinity>
10.92009

> <CNNscore>
0.5205677748

> <CNNaffinity>
6.8674697876

> <CNN_VS>
3.5749833584

> <CNNaffinity_variance>
1.9751780033

$$$$
[H]O[C@@]1([H])C([H])([H])C([H])([H])[C@]2([H])[C@]1(C([H])([H])[H])C([H])([H])C([H])([H])[C@]1([H])[C@]3(C([H])([H])[H])C(=C([H])C(=O)C([H])([H])C3([H])[H])C([H])([H])C([H])([H])[C@@]21[H]


 22 25  0  0  0  0  0  0  0  0999 V2000
    6.1396   48.2860  129.7655 C   0  0  0  0  0  0  0  0  0  0  0  0
    7.4563   48.9399  129.4419 C   0  0  0  0  0  0  0  0  0  0  0  0
    8.1926   48.2447  128.3486 C   0  0  0  0  0  0  0  0  0  0  0  0
    8.5575   46.8620  128.8286 C   0  0  0  0  0  0  0  0  0  0  0  0
    9.4920   46.9691  130.0152 C   0  0  0  0  0  0  0  0  0  0  0  0
    8.8499   47.7410  131.1660 C   0  0  0  0  0  0  0  0  0  0  0  0
    9.9559   48.0695  132.1594 C   0  0  0  0  0  0  0  0  0  0  0  0
   10.7076   46.8715  132.6179 C   0  0  0  0  0  0  0  0  0  0  0  0
   10.9780   45.8787  131.5673 C   0  0  0  0  0  0  0  0  0  0  0  0
   12.1258   45.2233  131.6168 C   0  0  0  0  0  0  0  0  0  0  0  0
   12.4949   44.2248  130.6345 C   0  0  0  0  0  0  0  0  0  0  0  0
   13.6702   43.8419  130.4603 O   0  0  0  0  0  0  0  0  0  0  0  0
   11.3637   43.6594  129.8156 C   0  0  0  0  0  0  0  0  0  0  0  0
   10.5516   44.8524  129.3539 C   0  0  0  0  0  0  0  0  0  0  0  0
    9.9708   45.6377  130.4896 C   0  0  0  0  0  0  0  0  0  0  0  0
    8.8450   44.8244  131.0955 C   0  0  0  0  0  0  0  0  0  0  0  0
    8.3692   49.0319  130.6445 C   0  0  0  0  0  0  0  0  0  0  0  0
    7.5595   49.8644  131.5676 C   0  0  0  0  0  0  0  0  0  0  0  0
    6.9633   50.9074  130.6189 C   0  0  0  0  0  0  0  0  0  0  0  0
    7.3006   50.4298  129.2199 C   0  0  0  0  0  0  0  0  0  0  0  0
    6.3884   50.7707  128.2802 O   0  0  0  0  0  0  0  0  0  0  0  0
    5.5777   50.2377  128.2315 H   0  0  0  0  0  0  0  0  0  0  0  0
  2  1  1  0  0  0
  2  3  1  0  0  0
  3  4  1  0  0  0
  4  5  1  0  0  0
  5  6  1  0  0  0
  6  7  1  0  0  0
  7  8  1  0  0  0
  8  9  1  0  0  0
  9 10  2  0  0  0
 10 11  1  0  0  0
 11 12  2  0  0  0
 11 13  1  0  0  0
 13 14  1  0  0  0
 14 15  1  0  0  0
 15 16  1  0  0  0
  6 17  1  0  0  0
 17 18  1  0  0  0
 18 19  1  0  0  0
 19 20  1  0  0  0
 20 21  1  0  0  0
 17  2  1  0  0  0
 20  2  1  0  0  0
 15  5  1  0  0  0
 15  9  1  0  0  0
 21 22  1  0  0  0
M  END
> <minimizedAffinity>
-6.21874

> <CNNscore>
0.4884823263

> <CNNaffinity>
6.9350118637

> <CNN_VS>
3.3876307011

> <CNNaffinity_variance>
0.4918043017

$$$$
[H]O[C@@]1([H])C([H])([H])C([H])([H])[C@]2([H])[C@]1(C([H])([H])[H])C([H])([H])C([H])([H])[C@]1([H])[C@]3(C([H])([H])[H])C(=C([H])C(=O)C([H])([H])C3([H])[H])C([H])([H])C([H])([H])[C@@]21[H]


 22 25  0  0  0  0  0  0  0  0999 V2000
   10.9626   44.4386  130.5493 C   0  0  0  0  0  0  0  0  0  0  0  0
   10.6427   44.9856  129.1838 C   0  0  0  0  0  0  0  0  0  0  0  0
   11.2150   46.3428  128.9573 C   0  0  0  0  0  0  0  0  0  0  0  0
   10.5568   47.3005  129.9192 C   0  0  0  0  0  0  0  0  0  0  0  0
    9.0734   47.3731  129.6246 C   0  0  0  0  0  0  0  0  0  0  0  0
    8.4089   46.0041  129.7540 C   0  0  0  0  0  0  0  0  0  0  0  0
    7.0222   46.1171  129.1357 C   0  0  0  0  0  0  0  0  0  0  0  0
    6.2053   47.2117  129.7231 C   0  0  0  0  0  0  0  0  0  0  0  0
    6.9507   48.4467  130.0089 C   0  0  0  0  0  0  0  0  0  0  0  0
    6.3261   49.5997  129.8360 C   0  0  0  0  0  0  0  0  0  0  0  0
    6.9640   50.8757  130.0872 C   0  0  0  0  0  0  0  0  0  0  0  0
    6.5345   51.9544  129.6287 O   0  0  0  0  0  0  0  0  0  0  0  0
    8.1994   50.8342  130.9488 C   0  0  0  0  0  0  0  0  0  0  0  0
    9.0478   49.7051  130.4000 C   0  0  0  0  0  0  0  0  0  0  0  0
    8.3677   48.3728  130.4786 C   0  0  0  0  0  0  0  0  0  0  0  0
    8.3414   47.9442  131.9318 C   0  0  0  0  0  0  0  0  0  0  0  0
    9.1549   45.0479  128.9179 C   0  0  0  0  0  0  0  0  0  0  0  0
    8.7732   43.6192  129.0359 C   0  0  0  0  0  0  0  0  0  0  0  0
    9.9376   42.9174  128.3326 C   0  0  0  0  0  0  0  0  0  0  0  0
   10.9792   43.9925  128.0912 C   0  0  0  0  0  0  0  0  0  0  0  0
   12.2559   43.5441  128.1061 O   0  0  0  0  0  0  0  0  0  0  0  0
   12.6642   43.3893  128.9739 H   0  0  0  0  0  0  0  0  0  0  0  0
  2  1  1  0  0  0
  2  3  1  0  0  0
  3  4  1  0  0  0
  4  5  1  0  0  0
  5  6  1  0  0  0
  6  7  1  0  0  0
  7  8  1  0  0  0
  8  9  1  0  0  0
  9 10  2  0  0  0
 10 11  1  0  0  0
 11 12  2  0  0  0
 11 13  1  0  0  0
 13 14  1  0  0  0
 14 15  1  0  0  0
 15 16  1  0  0  0
  6 17  1  0  0  0
 17 18  1  0  0  0
 18 19  1  0  0  0
 19 20  1  0  0  0
 20 21  1  0  0  0
 17  2  1  0  0  0
 20  2  1  0  0  0
 15  5  1  0  0  0
 15  9  1  0  0  0
 21 22  1  0  0  0
M  END
> <minimizedAffinity>
-3.02851

> <CNNscore>
0.4764273763

> <CNNaffinity>
6.8357896805

> <CNN_VS>
3.2567572594

> <CNNaffinity_variance>
0.8083627820

$$$$
[H]O[C@@]1([H])C([H])([H])C([H])([H])[C@]2([H])[C@]1(C([H])([H])[H])C([H])([H])C([H])([H])[C@]1([H])[C@]3(C([H])([H])[H])C(=C([H])C(=O)C([H])([H])C3([H])[H])C([H])([H])C([H])([H])[C@@]21[H]


 22 25  0  0  0  0  0  0  0  0999 V2000
    9.9220   43.0402  130.2229 C   0  0  0  0  0  0  0  0  0  0  0  0
   10.4090   44.1633  129.3469 C   0  0  0  0  0  0  0  0  0  0  0  0
   11.5469   44.9134  129.9497 C   0  0  0  0  0  0  0  0  0  0  0  0
   11.0554   45.5901  131.2052 C   0  0  0  0  0  0  0  0  0  0  0  0
    9.9802   46.5952  130.8499 C   0  0  0  0  0  0  0  0  0  0  0  0
    8.7982   45.9274  130.1504 C   0  0  0  0  0  0  0  0  0  0  0  0
    7.9417   47.0372  129.5565 C   0  0  0  0  0  0  0  0  0  0  0  0
    7.5200   48.0524  130.5575 C   0  0  0  0  0  0  0  0  0  0  0  0
    8.5544   48.4112  131.5393 C   0  0  0  0  0  0  0  0  0  0  0  0
    8.6022   49.6655  131.9564 C   0  0  0  0  0  0  0  0  0  0  0  0
    9.5789   50.1283  132.9207 C   0  0  0  0  0  0  0  0  0  0  0  0
    9.8625   51.3338  133.0787 O   0  0  0  0  0  0  0  0  0  0  0  0
   10.2503   49.0578  133.7413 C   0  0  0  0  0  0  0  0  0  0  0  0
   10.6685   47.9844  132.7569 C   0  0  0  0  0  0  0  0  0  0  0  0
    9.5085   47.3723  132.0334 C   0  0  0  0  0  0  0  0  0  0  0  0
    8.7552   46.4942  133.0119 C   0  0  0  0  0  0  0  0  0  0  0  0
    9.3150   45.1519  129.0097 C   0  0  0  0  0  0  0  0  0  0  0  0
    8.3436   44.2865  128.2966 C   0  0  0  0  0  0  0  0  0  0  0  0
    9.2629   43.4063  127.4462 C   0  0  0  0  0  0  0  0  0  0  0  0
   10.6704   43.6944  127.9310 C   0  0  0  0  0  0  0  0  0  0  0  0
   11.5200   42.6461  127.8286 O   0  0  0  0  0  0  0  0  0  0  0  0
   11.4615   41.9564  128.5102 H   0  0  0  0  0  0  0  0  0  0  0  0
  2  1  1  0  0  0
  2  3  1  0  0  0
  3  4  1  0  0  0
  4  5  1  0  0  0
  5  6  1  0  0  0
  6  7  1  0  0  0
  7  8  1  0  0  0
  8  9  1  0  0  0
  9 10  2  0  0  0
 10 11  1  0  0  0
 11 12  2  0  0  0
 11 13  1  0  0  0
 13 14  1  0  0  0
 14 15  1  0  0  0
 15 16  1  0  0  0
  6 17  1  0  0  0
 17 18  1  0  0  0
 18 19  1  0  0  0
 19 20  1  0  0  0
 20 21  1  0  0  0
 17  2  1  0  0  0
 20  2  1  0  0  0
 15  5  1  0  0  0
 15  9  1  0  0  0
 21 22  1  0  0  0
M  END
> <minimizedAffinity>
-0.84414

> <CNNscore>
0.4516681433

> <CNNaffinity>
6.9886918068

> <CNN_VS>
3.1565694809

> <CNNaffinity_variance>
1.6117761135

$$$$
[H]O[C@@]1([H])C([H])([H])C([H])([H])[C@]2([H])[C@]1(C([H])([H])[H])C([H])([H])C([H])([H])[C@]1([H])[C@]3(C([H])([H])[H])C(=C([H])C(=O)C([H])([H])C3([H])[H])C([H])([H])C([H])([H])[C@@]21[H]


 22 25  0  0  0  0  0  0  0  0999 V2000
    7.8792   48.4732  128.0769 C   0  0  0  0  0  0  0  0  0  0  0  0
    7.6297   48.6430  129.5516 C   0  0  0  0  0  0  0  0  0  0  0  0
    8.8444   49.0808  130.2957 C   0  0  0  0  0  0  0  0  0  0  0  0
    9.8763   47.9843  130.2039 C   0  0  0  0  0  0  0  0  0  0  0  0
    9.3492   46.7362  130.8799 C   0  0  0  0  0  0  0  0  0  0  0  0
    8.0528   46.2536  130.2327 C   0  0  0  0  0  0  0  0  0  0  0  0
    7.4447   45.2145  131.1646 C   0  0  0  0  0  0  0  0  0  0  0  0
    8.3753   44.1015  131.4895 C   0  0  0  0  0  0  0  0  0  0  0  0
    9.7697   44.5134  131.7097 C   0  0  0  0  0  0  0  0  0  0  0  0
   10.4687   43.8643  132.6260 C   0  0  0  0  0  0  0  0  0  0  0  0
   11.8490   44.1863  132.9247 C   0  0  0  0  0  0  0  0  0  0  0  0
   12.4178   43.8356  133.9792 O   0  0  0  0  0  0  0  0  0  0  0  0
   12.5794   44.9836  131.8755 C   0  0  0  0  0  0  0  0  0  0  0  0
   11.6467   46.1147  131.4927 C   0  0  0  0  0  0  0  0  0  0  0  0
   10.3536   45.6330  130.9100 C   0  0  0  0  0  0  0  0  0  0  0  0
   10.6352   45.0981  129.5205 C   0  0  0  0  0  0  0  0  0  0  0  0
    7.1055   47.3811  130.2003 C   0  0  0  0  0  0  0  0  0  0  0  0
    5.8408   47.1685  129.4545 C   0  0  0  0  0  0  0  0  0  0  0  0
    5.2951   48.5937  129.3364 C   0  0  0  0  0  0  0  0  0  0  0  0
    6.4107   49.5013  129.8169 C   0  0  0  0  0  0  0  0  0  0  0  0
    6.4335   50.7174  129.2237 O   0  0  0  0  0  0  0  0  0  0  0  0
    6.8170   50.7720  128.3328 H   0  0  0  0  0  0  0  0  0  0  0  0
  2  1  1  0  0  0
  2  3  1  0  0  0
  3  4  1  0  0  0
  4  5  1  0  0  0
  5  6  1  0  0  0
  6  7  1  0  0  0
  7  8  1  0  0  0
  8  9  1  0  0  0
  9 10  2  0  0  0
 10 11  1  0  0  0
 11 12  2  0  0  0
 11 13  1  0  0  0
 13 14  1  0  0  0
 14 15  1  0  0  0
 15 16  1  0  0  0
  6 17  1  0  0  0
 17 18  1  0  0  0
 18 19  1  0  0  0
 19 20  1  0  0  0
 20 21  1  0  0  0
 17  2  1  0  0  0
 20  2  1  0  0  0
 15  5  1  0  0  0
 15  9  1  0  0  0
 21 22  1  0  0  0
M  END
> <minimizedAffinity>
-9.08474

> <CNNscore>
0.4493761659

> <CNNaffinity>
7.0276823044

> <CNN_VS>
3.1580729485

> <CNNaffinity_variance>
0.2524504662

$$$$
[H]Oc1c([H])c([H])c2c(c1[H])C([H])([H])C([H])([H])[C@]1([H])[C@]2([H])C([H])([H])C([H])([H])[C@]2(C([H])([H])[H])[C@@]([H])(O[H])C([H])([H])C([H])([H])[C@]21[H]


 22 25  0  0  0  0  0  0  0  0999 V2000
   12.4568   45.3717  131.9099 C   0  0  0  0  0  0  0  0  0  0  0  0
   11.1781   44.5924  132.1011 C   0  0  0  0  0  0  0  0  0  0  0  0
   10.5397   44.3600  130.7747 C   0  0  0  0  0  0  0  0  0  0  0  0
    9.9716   45.6106  130.1855 C   0  0  0  0  0  0  0  0  0  0  0  0
    9.1803   46.4161  131.1647 C   0  0  0  0  0  0  0  0  0  0  0  0
   10.0045   46.6817  132.4339 C   0  0  0  0  0  0  0  0  0  0  0  0
    9.3060   47.6874  133.2759 C   0  0  0  0  0  0  0  0  0  0  0  0
    9.4200   49.0351  132.5478 C   0  0  0  0  0  0  0  0  0  0  0  0
    8.7381   48.8751  131.2178 C   0  0  0  0  0  0  0  0  0  0  0  0
    8.1986   49.9895  130.6097 C   0  0  0  0  0  0  0  0  0  0  0  0
    7.5505   49.9352  129.3824 C   0  0  0  0  0  0  0  0  0  0  0  0
    7.0128   51.0856  128.7904 O   0  0  0  0  0  0  0  0  0  0  0  0
    7.4589   48.7033  128.7722 C   0  0  0  0  0  0  0  0  0  0  0  0
    7.9977   47.5824  129.3764 C   0  0  0  0  0  0  0  0  0  0  0  0
    8.6399   47.6415  130.5946 C   0  0  0  0  0  0  0  0  0  0  0  0
   10.2259   45.3511  133.0409 C   0  0  0  0  0  0  0  0  0  0  0  0
   10.9561   45.3002  134.3176 C   0  0  0  0  0  0  0  0  0  0  0  0
   11.5664   43.9044  134.3165 C   0  0  0  0  0  0  0  0  0  0  0  0
   11.4292   43.3689  132.9105 C   0  0  0  0  0  0  0  0  0  0  0  0
   12.5796   42.7333  132.4708 O   0  0  0  0  0  0  0  0  0  0  0  0
    7.1134   51.9545  129.2880 H   0  0  0  0  0  0  0  0  0  0  0  0
   12.6247   42.7569  131.4714 H   0  0  0  0  0  0  0  0  0  0  0  0
  2  1  1  0  0  0
  2  3  1  0  0  0
  3  4  1  0  0  0
  4  5  1  0  0  0
  5  6  1  0  0  0
  6  7  1  0  0  0
  7  8  1  0  0  0
  8  9  1  0  0  0
  9 10  2  0  0  0
 10 11  1  0  0  0
 11 12  1  0  0  0
 11 13  2  0  0  0
 13 14  1  0  0  0
 14 15  2  0  0  0
  6 16  1  0  0  0
 16 17  1  0  0  0
 17 18  1  0  0  0
 18 19  1  0  0  0
 19 20  1  0  0  0
 16  2  1  0  0  0
 19  2  1  0  0  0
 15  5  1  0  0  0
 15  9  1  0  0  0
 12 21  1  0  0  0
 20 22  1  0  0  0
M  END
> <minimizedAffinity>
-11.66621

> <CNNscore>
0.9109999537

> <CNNaffinity>
7.8913664818

> <CNN_VS>
7.1890344620

> <CNNaffinity_variance>
0.9260465503

$$$$
[H]Oc1c([H])c([H])c2c(c1[H])C([H])([H])C([H])([H])[C@]1([H])[C@]2([H])C([H])([H])C([H])([H])[C@]2(C([H])([H])[H])[C@@]([H])(O[H])C([H])([H])C([H])([H])[C@]21[H]


 22 25  0  0  0  0  0  0  0  0999 V2000
    9.4501   44.2442  133.2178 C   0  0  0  0  0  0  0  0  0  0  0  0
   10.7709   44.9609  133.0736 C   0  0  0  0  0  0  0  0  0  0  0  0
   10.6885   46.2865  133.7496 C   0  0  0  0  0  0  0  0  0  0  0  0
    9.8124   47.2500  133.0162 C   0  0  0  0  0  0  0  0  0  0  0  0
   10.0696   47.2768  131.5442 C   0  0  0  0  0  0  0  0  0  0  0  0
   10.0054   45.8569  130.9606 C   0  0  0  0  0  0  0  0  0  0  0  0
   10.0076   45.9315  129.4764 C   0  0  0  0  0  0  0  0  0  0  0  0
    8.6431   46.4983  129.0565 C   0  0  0  0  0  0  0  0  0  0  0  0
    8.5291   47.8671  129.6671 C   0  0  0  0  0  0  0  0  0  0  0  0
    7.7290   48.8055  129.0491 C   0  0  0  0  0  0  0  0  0  0  0  0
    7.5655   50.0939  129.5417 C   0  0  0  0  0  0  0  0  0  0  0  0
    6.7454   51.0247  128.8904 O   0  0  0  0  0  0  0  0  0  0  0  0
    8.2432   50.4176  130.6967 C   0  0  0  0  0  0  0  0  0  0  0  0
    9.0467   49.4815  131.3211 C   0  0  0  0  0  0  0  0  0  0  0  0
    9.2057   48.2041  130.8282 C   0  0  0  0  0  0  0  0  0  0  0  0
   11.1288   45.1265  131.5870 C   0  0  0  0  0  0  0  0  0  0  0  0
   11.3481   43.7319  131.1711 C   0  0  0  0  0  0  0  0  0  0  0  0
   12.0478   43.1135  132.3746 C   0  0  0  0  0  0  0  0  0  0  0  0
   11.8899   44.0868  133.5193 C   0  0  0  0  0  0  0  0  0  0  0  0
   11.5592   43.4570  134.7087 O   0  0  0  0  0  0  0  0  0  0  0  0
    6.2782   50.7250  128.0510 H   0  0  0  0  0  0  0  0  0  0  0  0
   11.0775   44.0935  135.3122 H   0  0  0  0  0  0  0  0  0  0  0  0
  2  1  1  0  0  0
  2  3  1  0  0  0
  3  4  1  0  0  0
  4  5  1  0  0  0
  5  6  1  0  0  0
  6  7  1  0  0  0
  7  8  1  0  0  0
  8  9  1  0  0  0
  9 10  2  0  0  0
 10 11  1  0  0  0
 11 12  1  0  0  0
 11 13  2  0  0  0
 13 14  1  0  0  0
 14 15  2  0  0  0
  6 16  1  0  0  0
 16 17  1  0  0  0
 17 18  1  0  0  0
 18 19  1  0  0  0
 19 20  1  0  0  0
 16  2  1  0  0  0
 19  2  1  0  0  0
 15  5  1  0  0  0
 15  9  1  0  0  0
 12 21  1  0  0  0
 20 22  1  0  0  0
M  END
> <minimizedAffinity>
-10.81445

> <CNNscore>
0.8647631407

> <CNNaffinity>
7.7952575684

> <CNN_VS>
6.7410511971

> <CNNaffinity_variance>
0.9207736850

$$$$
[H]Oc1c([H])c([H])c2c(c1[H])C([H])([H])C([H])([H])[C@]1([H])[C@]2([H])C([H])([H])C([H])([H])[C@]2(C([H])([H])[H])[C@@]([H])(O[H])C([H])([H])C([H])([H])[C@]21[H]


 22 25  0  0  0  0  0  0  0  0999 V2000
   11.2398   43.7640  130.3672 C   0  0  0  0  0  0  0  0  0  0  0  0
   10.2430   43.6595  131.4961 C   0  0  0  0  0  0  0  0  0  0  0  0
    8.8693   43.5399  130.9309 C   0  0  0  0  0  0  0  0  0  0  0  0
    8.3931   44.8125  130.3087 C   0  0  0  0  0  0  0  0  0  0  0  0
    8.6536   46.0158  131.1560 C   0  0  0  0  0  0  0  0  0  0  0  0
   10.1332   46.0754  131.5658 C   0  0  0  0  0  0  0  0  0  0  0  0
   10.4227   47.3958  132.1832 C   0  0  0  0  0  0  0  0  0  0  0  0
   10.3744   48.4361  131.0540 C   0  0  0  0  0  0  0  0  0  0  0  0
    8.9851   48.3992  130.4815 C   0  0  0  0  0  0  0  0  0  0  0  0
    8.4832   49.5357  129.8823 C   0  0  0  0  0  0  0  0  0  0  0  0
    7.2109   49.5926  129.3279 C   0  0  0  0  0  0  0  0  0  0  0  0
    6.7297   50.7628  128.7260 O   0  0  0  0  0  0  0  0  0  0  0  0
    6.4428   48.4508  129.3949 C   0  0  0  0  0  0  0  0  0  0  0  0
    6.9400   47.3083  129.9941 C   0  0  0  0  0  0  0  0  0  0  0  0
    8.2034   47.2568  130.5429 C   0  0  0  0  0  0  0  0  0  0  0  0
   10.3502   44.8860  132.4180 C   0  0  0  0  0  0  0  0  0  0  0  0
   11.6872   44.7069  133.0062 C   0  0  0  0  0  0  0  0  0  0  0  0
   11.7774   43.2012  133.2188 C   0  0  0  0  0  0  0  0  0  0  0  0
   10.6387   42.5816  132.4430 C   0  0  0  0  0  0  0  0  0  0  0  0
   11.0277   41.4505  131.7431 O   0  0  0  0  0  0  0  0  0  0  0  0
    7.3409   51.5621  128.7100 H   0  0  0  0  0  0  0  0  0  0  0  0
   10.4228   41.3064  130.9591 H   0  0  0  0  0  0  0  0  0  0  0  0
  2  1  1  0  0  0
  2  3  1  0  0  0
  3  4  1  0  0  0
  4  5  1  0  0  0
  5  6  1  0  0  0
  6  7  1  0  0  0
  7  8  1  0  0  0
  8  9  1  0  0  0
  9 10  2  0  0  0
 10 11  1  0  0  0
 11 12  1  0  0  0
 11 13  2  0  0  0
 13 14  1  0  0  0
 14 15  2  0  0  0
  6 16  1  0  0  0
 16 17  1  0  0  0
 17 18  1  0  0  0
 18 19  1  0  0  0
 19 20  1  0  0  0
 16  2  1  0  0  0
 19  2  1  0  0  0
 15  5  1  0  0  0
 15  9  1  0  0  0
 12 21  1  0  0  0
 20 22  1  0  0  0
M  END
> <minimizedAffinity>
-9.60806

> <CNNscore>
0.8550841212

> <CNNaffinity>
7.8971123695

> <CNN_VS>
6.7526955605

> <CNNaffinity_variance>
1.3983404636

$$$$
[H]Oc1c([H])c([H])c2c(c1[H])C([H])([H])C([H])([H])[C@]1([H])[C@]2([H])C([H])([H])C([H])([H])[C@]2(C([H])([H])[H])[C@@]([H])(O[H])C([H])([H])C([H])([H])[C@]21[H]


 22 25  0  0  0  0  0  0  0  0999 V2000
    8.7766   49.0990  129.1025 C   0  0  0  0  0  0  0  0  0  0  0  0
    7.9000   48.9494  130.3225 C   0  0  0  0  0  0  0  0  0  0  0  0
    8.7086   49.2154  131.5458 C   0  0  0  0  0  0  0  0  0  0  0  0
    9.6964   48.1296  131.8267 C   0  0  0  0  0  0  0  0  0  0  0  0
    9.1137   46.7584  131.7081 C   0  0  0  0  0  0  0  0  0  0  0  0
    8.4155   46.5858  130.3505 C   0  0  0  0  0  0  0  0  0  0  0  0
    8.0715   45.1541  130.1495 C   0  0  0  0  0  0  0  0  0  0  0  0
    9.3927   44.4072  129.9127 C   0  0  0  0  0  0  0  0  0  0  0  0
   10.2307   44.5946  131.1463 C   0  0  0  0  0  0  0  0  0  0  0  0
   11.1709   43.6360  131.4626 C   0  0  0  0  0  0  0  0  0  0  0  0
   11.9878   43.7264  132.5823 C   0  0  0  0  0  0  0  0  0  0  0  0
   12.9337   42.7356  132.8764 O   0  0  0  0  0  0  0  0  0  0  0  0
   11.8287   44.8306  133.3908 C   0  0  0  0  0  0  0  0  0  0  0  0
   10.8883   45.7951  133.0793 C   0  0  0  0  0  0  0  0  0  0  0  0
   10.0799   45.7008  131.9669 C   0  0  0  0  0  0  0  0  0  0  0  0
    7.2856   47.5402  130.3688 C   0  0  0  0  0  0  0  0  0  0  0  0
    6.3942   47.5599  129.1979 C   0  0  0  0  0  0  0  0  0  0  0  0
    5.8255   48.9730  129.2144 C   0  0  0  0  0  0  0  0  0  0  0  0
    6.6670   49.7712  130.1826 C   0  0  0  0  0  0  0  0  0  0  0  0
    6.9845   51.0295  129.6963 O   0  0  0  0  0  0  0  0  0  0  0  0
   12.9998   41.9544  132.2455 H   0  0  0  0  0  0  0  0  0  0  0  0
    7.8269   51.3605  130.1232 H   0  0  0  0  0  0  0  0  0  0  0  0
  2  1  1  0  0  0
  2  3  1  0  0  0
  3  4  1  0  0  0
  4  5  1  0  0  0
  5  6  1  0  0  0
  6  7  1  0  0  0
  7  8  1  0  0  0
  8  9  1  0  0  0
  9 10  2  0  0  0
 10 11  1  0  0  0
 11 12  1  0  0  0
 11 13  2  0  0  0
 13 14  1  0  0  0
 14 15  2  0  0  0
  6 16  1  0  0  0
 16 17  1  0  0  0
 17 18  1  0  0  0
 18 19  1  0  0  0
 19 20  1  0  0  0
 16  2  1  0  0  0
 19  2  1  0  0  0
 15  5  1  0  0  0
 15  9  1  0  0  0
 12 21  1  0  0  0
 20 22  1  0  0  0
M  END
> <minimizedAffinity>
-9.61108

> <CNNscore>
0.5507914424

> <CNNaffinity>
7.2337598801

> <CNN_VS>
3.9842929840

> <CNNaffinity_variance>
0.4961489141

$$$$
[H]Oc1c([H])c([H])c2c(c1[H])C([H])([H])C([H])([H])[C@]1([H])[C@]2([H])C([H])([H])C([H])([H])[C@]2(C([H])([H])[H])[C@@]([H])(O[H])C([H])([H])C([H])([H])[C@]21[H]


 22 25  0  0  0  0  0  0  0  0999 V2000
    7.5503   48.2843  131.3266 C   0  0  0  0  0  0  0  0  0  0  0  0
    8.8976   48.6184  130.7329 C   0  0  0  0  0  0  0  0  0  0  0  0
    9.1284   47.7725  129.5278 C   0  0  0  0  0  0  0  0  0  0  0  0
    9.3680   46.3381  129.8723 C   0  0  0  0  0  0  0  0  0  0  0  0
   10.3334   46.1563  130.9986 C   0  0  0  0  0  0  0  0  0  0  0  0
    9.9058   46.9928  132.2143 C   0  0  0  0  0  0  0  0  0  0  0  0
   10.7224   46.6049  133.3938 C   0  0  0  0  0  0  0  0  0  0  0  0
   10.2635   45.1996  133.8110 C   0  0  0  0  0  0  0  0  0  0  0  0
   10.5275   44.2872  132.6460 C   0  0  0  0  0  0  0  0  0  0  0  0
   10.7476   42.9472  132.8884 C   0  0  0  0  0  0  0  0  0  0  0  0
   10.9998   42.0324  131.8741 C   0  0  0  0  0  0  0  0  0  0  0  0
   11.2196   40.6770  132.1529 O   0  0  0  0  0  0  0  0  0  0  0  0
   11.0247   42.5137  130.5834 C   0  0  0  0  0  0  0  0  0  0  0  0
   10.8048   43.8558  130.3337 C   0  0  0  0  0  0  0  0  0  0  0  0
   10.5549   44.7596  131.3438 C   0  0  0  0  0  0  0  0  0  0  0  0
   10.0084   48.4013  131.7743 C   0  0  0  0  0  0  0  0  0  0  0  0
    9.7034   49.4461  132.7648 C   0  0  0  0  0  0  0  0  0  0  0  0
    9.2611   50.6241  131.9062 C   0  0  0  0  0  0  0  0  0  0  0  0
    9.0222   50.0854  130.5151 C   0  0  0  0  0  0  0  0  0  0  0  0
    7.8612   50.5838  129.9458 O   0  0  0  0  0  0  0  0  0  0  0  0
   11.1880   40.3900  133.1169 H   0  0  0  0  0  0  0  0  0  0  0  0
    7.5164   49.9472  129.2550 H   0  0  0  0  0  0  0  0  0  0  0  0
  2  1  1  0  0  0
  2  3  1  0  0  0
  3  4  1  0  0  0
  4  5  1  0  0  0
  5  6  1  0  0  0
  6  7  1  0  0  0
  7  8  1  0  0  0
  8  9  1  0  0  0
  9 10  2  0  0  0
 10 11  1  0  0  0
 11 12  1  0  0  0
 11 13  2  0  0  0
 13 14  1  0  0  0
 14 15  2  0  0  0
  6 16  1  0  0  0
 16 17  1  0  0  0
 17 18  1  0  0  0
 18 19  1  0  0  0
 19 20  1  0  0  0
 16  2  1  0  0  0
 19  2  1  0  0  0
 15  5  1  0  0  0
 15  9  1  0  0  0
 12 21  1  0  0  0
 20 22  1  0  0  0
M  END
> <minimizedAffinity>
-6.59815

> <CNNscore>
0.3585616648

> <CNNaffinity>
6.8858580589

> <CNN_VS>
2.4690046310

> <CNNaffinity_variance>
0.4591178000

$$$$
[H]Oc1c([H])c([H])c2c(c1[H])C([H])([H])C([H])([H])[C@]1([H])[C@]2([H])C([H])([H])C([H])([H])[C@]2(C([H])([H])[H])[C@@]([H])(O[H])C([H])([H])C([H])([H])[C@]21[H]


 22 25  0  0  0  0  0  0  0  0999 V2000
    8.5189   48.1839  129.2742 C   0  0  0  0  0  0  0  0  0  0  0  0
    8.6121   49.0839  130.4827 C   0  0  0  0  0  0  0  0  0  0  0  0
   10.0413   49.4216  130.7365 C   0  0  0  0  0  0  0  0  0  0  0  0
   10.8237   48.2548  131.2465 C   0  0  0  0  0  0  0  0  0  0  0  0
   10.1220   47.5045  132.3320 C   0  0  0  0  0  0  0  0  0  0  0  0
    8.7033   47.1164  131.8878 C   0  0  0  0  0  0  0  0  0  0  0  0
    8.1219   46.1619  132.8672 C   0  0  0  0  0  0  0  0  0  0  0  0
    8.8724   44.8330  132.6941 C   0  0  0  0  0  0  0  0  0  0  0  0
   10.3200   45.1033  132.9954 C   0  0  0  0  0  0  0  0  0  0  0  0
   11.1059   44.0695  133.4606 C   0  0  0  0  0  0  0  0  0  0  0  0
   12.4517   44.2281  133.7652 C   0  0  0  0  0  0  0  0  0  0  0  0
   13.2236   43.1578  134.2361 O   0  0  0  0  0  0  0  0  0  0  0  0
   12.9952   45.4812  133.5849 C   0  0  0  0  0  0  0  0  0  0  0  0
   12.2129   46.5217  133.1188 C   0  0  0  0  0  0  0  0  0  0  0  0
   10.8776   46.3592  132.8179 C   0  0  0  0  0  0  0  0  0  0  0  0
    7.9863   48.3978  131.7087 C   0  0  0  0  0  0  0  0  0  0  0  0
    6.5662   48.3339  131.3280 C   0  0  0  0  0  0  0  0  0  0  0  0
    6.3353   49.6592  130.6132 C   0  0  0  0  0  0  0  0  0  0  0  0
    7.6982   50.2494  130.3366 C   0  0  0  0  0  0  0  0  0  0  0  0
    7.7980   50.7771  129.0590 O   0  0  0  0  0  0  0  0  0  0  0  0
   12.7663   42.2681  134.3459 H   0  0  0  0  0  0  0  0  0  0  0  0
    8.7535   50.7802  128.7620 H   0  0  0  0  0  0  0  0  0  0  0  0
  2  1  1  0  0  0
  2  3  1  0  0  0
  3  4  1  0  0  0
  4  5  1  0  0  0
  5  6  1  0  0  0
  6  7  1  0  0  0
  7  8  1  0  0  0
  8  9  1  0  0  0
  9 10  2  0  0  0
 10 11  1  0  0  0
 11 12  1  0  0  0
 11 13  2  0  0  0
 13 14  1  0  0  0
 14 15  2  0  0  0
  6 16  1  0  0  0
 16 17  1  0  0  0
 17 18  1  0  0  0
 18 19  1  0  0  0
 19 20  1  0  0  0
 16  2  1  0  0  0
 19  2  1  0  0  0
 15  5  1  0  0  0
 15  9  1  0  0  0
 12 21  1  0  0  0
 20 22  1  0  0  0
M  END
> <minimizedAffinity>
-1.24550

> <CNNscore>
0.3575373888

> <CNNaffinity>
6.6092667580

> <CNN_VS>
2.3630599976

> <CNNaffinity_variance>
0.6160390973

$$$$
[H]Oc1c([H])c([H])c2c(c1[H])C([H])([H])C([H])([H])[C@]1([H])[C@]2([H])C([H])([H])C([H])([H])[C@]2(C([H])([H])[H])[C@@]([H])(O[H])C([H])([H])C([H])([H])[C@]21[H]


 22 25  0  0  0  0  0  0  0  0999 V2000
    8.4930   43.4750  132.1099 C   0  0  0  0  0  0  0  0  0  0  0  0
    9.6617   43.5867  131.1608 C   0  0  0  0  0  0  0  0  0  0  0  0
   10.9044   43.1464  131.8556 C   0  0  0  0  0  0  0  0  0  0  0  0
   11.3512   44.1173  132.9003 C   0  0  0  0  0  0  0  0  0  0  0  0
   11.3257   45.5371  132.4341 C   0  0  0  0  0  0  0  0  0  0  0  0
    9.9479   45.8877  131.8516 C   0  0  0  0  0  0  0  0  0  0  0  0
    9.8619   47.3551  131.6335 C   0  0  0  0  0  0  0  0  0  0  0  0
    9.7840   48.0084  133.0215 C   0  0  0  0  0  0  0  0  0  0  0  0
   11.0464   47.6427  133.7508 C   0  0  0  0  0  0  0  0  0  0  0  0
   11.5131   48.4880  134.7359 C   0  0  0  0  0  0  0  0  0  0  0  0
   12.6702   48.2305  135.4598 C   0  0  0  0  0  0  0  0  0  0  0  0
   13.1183   49.1094  136.4547 O   0  0  0  0  0  0  0  0  0  0  0  0
   13.3578   47.0753  135.1586 C   0  0  0  0  0  0  0  0  0  0  0  0
   12.8953   46.2236  134.1725 C   0  0  0  0  0  0  0  0  0  0  0  0
   11.7464   46.4837  133.4567 C   0  0  0  0  0  0  0  0  0  0  0  0
    9.8015   45.0321  130.6539 C   0  0  0  0  0  0  0  0  0  0  0  0
    8.5783   45.1911  129.8512 C   0  0  0  0  0  0  0  0  0  0  0  0
    8.4232   43.8341  129.1767 C   0  0  0  0  0  0  0  0  0  0  0  0
    9.3640   42.8856  129.8822 C   0  0  0  0  0  0  0  0  0  0  0  0
    8.7821   41.6540  130.1373 O   0  0  0  0  0  0  0  0  0  0  0  0
   12.5702   49.9357  136.6258 H   0  0  0  0  0  0  0  0  0  0  0  0
    9.2298   41.2176  130.9187 H   0  0  0  0  0  0  0  0  0  0  0  0
  2  1  1  0  0  0
  2  3  1  0  0  0
  3  4  1  0  0  0
  4  5  1  0  0  0
  5  6  1  0  0  0
  6  7  1  0  0  0
  7  8  1  0  0  0
  8  9  1  0  0  0
  9 10  2  0  0  0
 10 11  1  0  0  0
 11 12  1  0  0  0
 11 13  2  0  0  0
 13 14  1  0  0  0
 14 15  2  0  0  0
  6 16  1  0  0  0
 16 17  1  0  0  0
 17 18  1  0  0  0
 18 19  1  0  0  0
 19 20  1  0  0  0
 16  2  1  0  0  0
 19  2  1  0  0  0
 15  5  1  0  0  0
 15  9  1  0  0  0
 12 21  1  0  0  0
 20 22  1  0  0  0
M  END
> <minimizedAffinity>
5.29168

> <CNNscore>
0.3180896640

> <CNNaffinity>
6.6267204285

> <CNN_VS>
2.1078913212

> <CNNaffinity_variance>
0.5662192106

$$$$
[H]Oc1c([H])c([H])c2c(c1[H])C([H])([H])C([H])([H])[C@]1([H])[C@]2([H])C([H])([H])C([H])([H])[C@]2(C([H])([H])[H])[C@@]([H])(O[H])C([H])([H])C([H])([H])[C@]21[H]


 22 25  0  0  0  0  0  0  0  0999 V2000
    6.1172   49.7779  131.1613 C   0  0  0  0  0  0  0  0  0  0  0  0
    6.9719   49.4662  129.9565 C   0  0  0  0  0  0  0  0  0  0  0  0
    6.7809   48.0389  129.5729 C   0  0  0  0  0  0  0  0  0  0  0  0
    7.3973   47.0947  130.5538 C   0  0  0  0  0  0  0  0  0  0  0  0
    8.7810   47.4876  130.9597 C   0  0  0  0  0  0  0  0  0  0  0  0
    8.8060   48.9449  131.4457 C   0  0  0  0  0  0  0  0  0  0  0  0
   10.1195   49.2329  132.0785 C   0  0  0  0  0  0  0  0  0  0  0  0
   10.1516   48.4649  133.4083 C   0  0  0  0  0  0  0  0  0  0  0  0
   10.0194   47.0049  133.0759 C   0  0  0  0  0  0  0  0  0  0  0  0
   10.5562   46.0752  133.9421 C   0  0  0  0  0  0  0  0  0  0  0  0
   10.4818   44.7070  133.7150 C   0  0  0  0  0  0  0  0  0  0  0  0
   11.0374   43.7875  134.6145 O   0  0  0  0  0  0  0  0  0  0  0  0
    9.8391   44.2925  132.5690 C   0  0  0  0  0  0  0  0  0  0  0  0
    9.2987   45.2193  131.6968 C   0  0  0  0  0  0  0  0  0  0  0  0
    9.3752   46.5762  131.9266 C   0  0  0  0  0  0  0  0  0  0  0  0
    8.4510   49.7573  130.2616 C   0  0  0  0  0  0  0  0  0  0  0  0
    8.4456   51.2205  130.4188 C   0  0  0  0  0  0  0  0  0  0  0  0
    7.4656   51.6840  129.3486 C   0  0  0  0  0  0  0  0  0  0  0  0
    6.7257   50.4559  128.8725 C   0  0  0  0  0  0  0  0  0  0  0  0
    5.3654   50.6788  128.7295 O   0  0  0  0  0  0  0  0  0  0  0  0
   11.4933   44.1555  135.4326 H   0  0  0  0  0  0  0  0  0  0  0  0
    4.8646   49.8171  128.8188 H   0  0  0  0  0  0  0  0  0  0  0  0
  2  1  1  0  0  0
  2  3  1  0  0  0
  3  4  1  0  0  0
  4  5  1  0  0  0
  5  6  1  0  0  0
  6  7  1  0  0  0
  7  8  1  0  0  0
  8  9  1  0  0  0
  9 10  2  0  0  0
 10 11  1  0  0  0
 11 12  1  0  0  0
 11 13  2  0  0  0
 13 14  1  0  0  0
 14 15  2  0  0  0
  6 16  1  0  0  0
 16 17  1  0  0  0
 17 18  1  0  0  0
 18 19  1  0  0  0
 19 20  1  0  0  0
 16  2  1  0  0  0
 19  2  1  0  0  0
 15  5  1  0  0  0
 15  9  1  0  0  0
 12 21  1  0  0  0
 20 22  1  0  0  0
M  END
> <minimizedAffinity>
-1.20120

> <CNNscore>
0.3116772175

> <CNNaffinity>
6.5823121071

> <CNN_VS>
2.0515568256

> <CNNaffinity_variance>
0.3862750232

$$$$
[H]Oc1c([H])c([H])c2c(c1[H])C([H])([H])C([H])([H])[C@]1([H])[C@]2([H])C([H])([H])C([H])([H])[C@]2(C([H])([H])[H])[C@@]([H])(O[H])C([H])([H])C([H])([H])[C@]21[H]


 22 25  0  0  0  0  0  0  0  0999 V2000
    6.4714   46.8199  130.3372 C   0  0  0  0  0  0  0  0  0  0  0  0
    7.5555   47.3977  129.4598 C   0  0  0  0  0  0  0  0  0  0  0  0
    8.2977   46.2876  128.7981 C   0  0  0  0  0  0  0  0  0  0  0  0
    9.1496   45.5179  129.7549 C   0  0  0  0  0  0  0  0  0  0  0  0
    9.9485   46.3921  130.6667 C   0  0  0  0  0  0  0  0  0  0  0  0
    9.0378   47.4090  131.3719 C   0  0  0  0  0  0  0  0  0  0  0  0
    9.7990   48.0891  132.4520 C   0  0  0  0  0  0  0  0  0  0  0  0
   10.0195   47.0517  133.5631 C   0  0  0  0  0  0  0  0  0  0  0  0
   10.8177   45.9281  132.9633 C   0  0  0  0  0  0  0  0  0  0  0  0
   11.6193   45.1680  133.7893 C   0  0  0  0  0  0  0  0  0  0  0  0
   12.3911   44.1119  133.3221 C   0  0  0  0  0  0  0  0  0  0  0  0
   13.1955   43.3584  134.1871 O   0  0  0  0  0  0  0  0  0  0  0  0
   12.3321   43.8368  131.9734 C   0  0  0  0  0  0  0  0  0  0  0  0
   11.5305   44.5949  131.1400 C   0  0  0  0  0  0  0  0  0  0  0  0
   10.7664   45.6420  131.6086 C   0  0  0  0  0  0  0  0  0  0  0  0
    8.5078   48.2716  130.2935 C   0  0  0  0  0  0  0  0  0  0  0  0
    7.6308   49.3867  130.6851 C   0  0  0  0  0  0  0  0  0  0  0  0
    6.7833   49.6192  129.4408 C   0  0  0  0  0  0  0  0  0  0  0  0
    6.9912   48.4236  128.5410 C   0  0  0  0  0  0  0  0  0  0  0  0
    5.8070   47.9666  127.9847 O   0  0  0  0  0  0  0  0  0  0  0  0
   13.1938   43.6109  135.1612 H   0  0  0  0  0  0  0  0  0  0  0  0
    5.8886   46.9969  127.7514 H   0  0  0  0  0  0  0  0  0  0  0  0
  2  1  1  0  0  0
  2  3  1  0  0  0
  3  4  1  0  0  0
  4  5  1  0  0  0
  5  6  1  0  0  0
  6  7  1  0  0  0
  7  8  1  0  0  0
  8  9  1  0  0  0
  9 10  2  0  0  0
 10 11  1  0  0  0
 11 12  1  0  0  0
 11 13  2  0  0  0
 13 14  1  0  0  0
 14 15  2  0  0  0
  6 16  1  0  0  0
 16 17  1  0  0  0
 17 18  1  0  0  0
 18 19  1  0  0  0
 19 20  1  0  0  0
 16  2  1  0  0  0
 19  2  1  0  0  0
 15  5  1  0  0  0
 15  9  1  0  0  0
 12 21  1  0  0  0
 20 22  1  0  0  0
M  END
> <minimizedAffinity>
-9.48746

> <CNNscore>
0.3048027158

> <CNNaffinity>
6.8766508102

> <CNN_VS>
2.0960218906

> <CNNaffinity_variance>
0.2407945693

$$$$
[H]C#C[C@]1(O[H])C([H])([H])C([H])([H])[C@]2([H])[C@]1(C([H])([H])[H])C([H])([H])C([H])([H])[C@]1([H])c3c([H])c([H])c(O[H])c([H])c3C([H])([H])C([H])([H])[C@]12[H]


 24 27  0  0  0  0  0  0  0  0999 V2000
   11.0680   44.8984  130.4888 C   0  0  0  0  0  0  0  0  0  0  0  0
   10.3135   44.6825  131.7550 C   0  0  0  0  0  0  0  0  0  0  0  0
    8.8580   44.4627  131.5212 C   0  0  0  0  0  0  0  0  0  0  0  0
    8.2499   45.6818  130.8979 C   0  0  0  0  0  0  0  0  0  0  0  0
    8.5670   46.9590  131.6068 C   0  0  0  0  0  0  0  0  0  0  0  0
   10.0574   47.0844  131.9272 C   0  0  0  0  0  0  0  0  0  0  0  0
   10.3449   48.3719  132.6058 C   0  0  0  0  0  0  0  0  0  0  0  0
    9.4501   49.5127  132.3004 C   0  0  0  0  0  0  0  0  0  0  0  0
    8.5660   49.3470  131.1426 C   0  0  0  0  0  0  0  0  0  0  0  0
    8.1827   50.4450  130.4141 C   0  0  0  0  0  0  0  0  0  0  0  0
    7.3364   50.3099  129.3042 C   0  0  0  0  0  0  0  0  0  0  0  0
    6.9268   51.3935  128.5432 O   0  0  0  0  0  0  0  0  0  0  0  0
    6.8841   49.0490  128.9427 C   0  0  0  0  0  0  0  0  0  0  0  0
    7.2735   47.9502  129.6796 C   0  0  0  0  0  0  0  0  0  0  0  0
    8.1191   48.1025  130.7850 C   0  0  0  0  0  0  0  0  0  0  0  0
   10.4088   45.8726  132.7113 C   0  0  0  0  0  0  0  0  0  0  0  0
   11.7938   45.7839  133.2086 C   0  0  0  0  0  0  0  0  0  0  0  0
   11.9204   44.2991  133.5249 C   0  0  0  0  0  0  0  0  0  0  0  0
   10.9784   43.6048  132.5632 C   0  0  0  0  0  0  0  0  0  0  0  0
   11.7890   42.8175  131.7138 O   0  0  0  0  0  0  0  0  0  0  0  0
    6.1094   51.9395  128.7072 H   0  0  0  0  0  0  0  0  0  0  0  0
   12.6806   42.6497  132.1242 H   0  0  0  0  0  0  0  0  0  0  0  0
   10.0408   42.7245  133.2154 C   0  0  0  0  0  0  0  0  0  0  0  0
    9.2566   41.9941  133.7622 C   0  0  0  0  0  0  0  0  0  0  0  0
  2  1  1  0  0  0
  2  3  1  0  0  0
  3  4  1  0  0  0
  4  5  1  0  0  0
  5  6  1  0  0  0
  6  7  1  0  0  0
  7  8  1  0  0  0
  8  9  1  0  0  0
  9 10  2  0  0  0
 10 11  1  0  0  0
 11 12  1  0  0  0
 11 13  2  0  0  0
 13 14  1  0  0  0
 14 15  2  0  0  0
  6 16  1  0  0  0
 16 17  1  0  0  0
 17 18  1  0  0  0
 18 19  1  0  0  0
 19 20  1  0  0  0
 19 23  1  0  0  0
 23 24  3  0  0  0
 16  2  1  0  0  0
 19  2  1  0  0  0
 15  5  1  0  0  0
 15  9  1  0  0  0
 12 21  1  0  0  0
 20 22  1  0  0  0
M  END
> <minimizedAffinity>
-9.55305

> <CNNscore>
0.7519932389

> <CNNaffinity>
7.9293508530

> <CNN_VS>
5.9628181458

> <CNNaffinity_variance>
1.3225702047

$$$$
[H]C#C[C@]1(O[H])C([H])([H])C([H])([H])[C@]2([H])[C@]1(C([H])([H])[H])C([H])([H])C([H])([H])[C@]1([H])c3c([H])c([H])c(O[H])c([H])c3C([H])([H])C([H])([H])[C@]12[H]


 24 27  0  0  0  0  0  0  0  0999 V2000
    9.4375   45.8399  134.2023 C   0  0  0  0  0  0  0  0  0  0  0  0
   10.1152   45.1309  133.0810 C   0  0  0  0  0  0  0  0  0  0  0  0
   11.1515   45.9722  132.4177 C   0  0  0  0  0  0  0  0  0  0  0  0
   10.5129   47.1778  131.7989 C   0  0  0  0  0  0  0  0  0  0  0  0
    9.3311   46.8736  130.9357 C   0  0  0  0  0  0  0  0  0  0  0  0
    8.3532   45.9145  131.6163 C   0  0  0  0  0  0  0  0  0  0  0  0
    7.1795   45.6528  130.7475 C   0  0  0  0  0  0  0  0  0  0  0  0
    6.7885   46.7211  129.7981 C   0  0  0  0  0  0  0  0  0  0  0  0
    7.4006   48.0351  130.0178 C   0  0  0  0  0  0  0  0  0  0  0  0
    6.7201   49.1728  129.6633 C   0  0  0  0  0  0  0  0  0  0  0  0
    7.2872   50.4397  129.8629 C   0  0  0  0  0  0  0  0  0  0  0  0
    6.6325   51.6117  129.5185 O   0  0  0  0  0  0  0  0  0  0  0  0
    8.5515   50.5383  130.4257 C   0  0  0  0  0  0  0  0  0  0  0  0
    9.2294   49.3906  130.7795 C   0  0  0  0  0  0  0  0  0  0  0  0
    8.6488   48.1334  130.5735 C   0  0  0  0  0  0  0  0  0  0  0  0
    9.1463   44.7106  131.9746 C   0  0  0  0  0  0  0  0  0  0  0  0
    8.4102   43.5916  132.5906 C   0  0  0  0  0  0  0  0  0  0  0  0
    9.5364   42.7844  133.2237 C   0  0  0  0  0  0  0  0  0  0  0  0
   10.6146   43.7955  133.5544 C   0  0  0  0  0  0  0  0  0  0  0  0
   10.7240   43.8112  134.9637 O   0  0  0  0  0  0  0  0  0  0  0  0
    6.6911   52.0688  128.6348 H   0  0  0  0  0  0  0  0  0  0  0  0
   10.3426   42.9819  135.3618 H   0  0  0  0  0  0  0  0  0  0  0  0
   11.9074   43.4503  133.0173 C   0  0  0  0  0  0  0  0  0  0  0  0
   12.9839   43.1611  132.5645 C   0  0  0  0  0  0  0  0  0  0  0  0
  2  1  1  0  0  0
  2  3  1  0  0  0
  3  4  1  0  0  0
  4  5  1  0  0  0
  5  6  1  0  0  0
  6  7  1  0  0  0
  7  8  1  0  0  0
  8  9  1  0  0  0
  9 10  2  0  0  0
 10 11  1  0  0  0
 11 12  1  0  0  0
 11 13  2  0  0  0
 13 14  1  0  0  0
 14 15  2  0  0  0
  6 16  1  0  0  0
 16 17  1  0  0  0
 17 18  1  0  0  0
 18 19  1  0  0  0
 19 20  1  0  0  0
 19 23  1  0  0  0
 23 24  3  0  0  0
 16  2  1  0  0  0
 19  2  1  0  0  0
 15  5  1  0  0  0
 15  9  1  0  0  0
 12 21  1  0  0  0
 20 22  1  0  0  0
M  END
> <minimizedAffinity>
-8.68459

> <CNNscore>
0.5479379296

> <CNNaffinity>
7.4388923645

> <CNN_VS>
4.0760512352

> <CNNaffinity_variance>
0.7533298731

$$$$
[H]C#C[C@]1(O[H])C([H])([H])C([H])([H])[C@]2([H])[C@]1(C([H])([H])[H])C([H])([H])C([H])([H])[C@]1([H])c3c([H])c([H])c(O[H])c([H])c3C([H])([H])C([H])([H])[C@]12[H]


 24 27  0  0  0  0  0  0  0  0999 V2000
   11.0917   44.1267  131.1231 C   0  0  0  0  0  0  0  0  0  0  0  0
   10.8649   44.6290  132.5071 C   0  0  0  0  0  0  0  0  0  0  0  0
    9.4964   44.3182  133.0095 C   0  0  0  0  0  0  0  0  0  0  0  0
    8.4713   45.0079  132.1622 C   0  0  0  0  0  0  0  0  0  0  0  0
    8.7265   46.4655  131.9514 C   0  0  0  0  0  0  0  0  0  0  0  0
   10.1757   46.7436  131.5491 C   0  0  0  0  0  0  0  0  0  0  0  0
   10.3915   48.1936  131.3215 C   0  0  0  0  0  0  0  0  0  0  0  0
    9.2251   48.9892  130.8720 C   0  0  0  0  0  0  0  0  0  0  0  0
    8.0633   48.2248  130.4076 C   0  0  0  0  0  0  0  0  0  0  0  0
    7.2355   48.7556  129.4505 C   0  0  0  0  0  0  0  0  0  0  0  0
    6.1179   48.0428  128.9929 C   0  0  0  0  0  0  0  0  0  0  0  0
    5.2583   48.5440  128.0281 O   0  0  0  0  0  0  0  0  0  0  0  0
    5.8505   46.7865  129.5176 C   0  0  0  0  0  0  0  0  0  0  0  0
    6.6868   46.2595  130.4792 C   0  0  0  0  0  0  0  0  0  0  0  0
    7.7986   46.9844  130.9250 C   0  0  0  0  0  0  0  0  0  0  0  0
   11.0169   46.1470  132.6184 C   0  0  0  0  0  0  0  0  0  0  0  0
   12.4736   46.3404  132.5007 C   0  0  0  0  0  0  0  0  0  0  0  0
   13.0109   45.2615  133.4324 C   0  0  0  0  0  0  0  0  0  0  0  0
   11.9735   44.1581  133.4048 C   0  0  0  0  0  0  0  0  0  0  0  0
   12.6038   43.0365  132.8189 O   0  0  0  0  0  0  0  0  0  0  0  0
    4.4455   49.0925  128.2063 H   0  0  0  0  0  0  0  0  0  0  0  0
   13.5951   43.1166  132.8680 H   0  0  0  0  0  0  0  0  0  0  0  0
   11.5158   43.7697  134.7159 C   0  0  0  0  0  0  0  0  0  0  0  0
   11.1375   43.4488  135.8120 C   0  0  0  0  0  0  0  0  0  0  0  0
  2  1  1  0  0  0
  2  3  1  0  0  0
  3  4  1  0  0  0
  4  5  1  0  0  0
  5  6  1  0  0  0
  6  7  1  0  0  0
  7  8  1  0  0  0
  8  9  1  0  0  0
  9 10  2  0  0  0
 10 11  1  0  0  0
 11 12  1  0  0  0
 11 13  2  0  0  0
 13 14  1  0  0  0
 14 15  2  0  0  0
  6 16  1  0  0  0
 16 17  1  0  0  0
 17 18  1  0  0  0
 18 19  1  0  0  0
 19 20  1  0  0  0
 19 23  1  0  0  0
 23 24  3  0  0  0
 16  2  1  0  0  0
 19  2  1  0  0  0
 15  5  1  0  0  0
 15  9  1  0  0  0
 12 21  1  0  0  0
 20 22  1  0  0  0
M  END
> <minimizedAffinity>
-6.79531

> <CNNscore>
0.5273082852

> <CNNaffinity>
7.4436378479

> <CNN_VS>
3.9250919819

> <CNNaffinity_variance>
1.1103668213

$$$$
[H]C#C[C@]1(O[H])C([H])([H])C([H])([H])[C@]2([H])[C@]1(C([H])([H])[H])C([H])([H])C([H])([H])[C@]1([H])c3c([H])c([H])c(O[H])c([H])c3C([H])([H])C([H])([H])[C@]12[H]


 24 27  0  0  0  0  0  0  0  0999 V2000
   11.2381   46.6502  129.0306 C   0  0  0  0  0  0  0  0  0  0  0  0
   10.4339   45.6297  129.7595 C   0  0  0  0  0  0  0  0  0  0  0  0
    9.0944   45.4126  129.1430 C   0  0  0  0  0  0  0  0  0  0  0  0
    8.2902   46.6749  129.2084 C   0  0  0  0  0  0  0  0  0  0  0  0
    8.2425   47.3050  130.5630 C   0  0  0  0  0  0  0  0  0  0  0  0
    9.6288   47.4001  131.2024 C   0  0  0  0  0  0  0  0  0  0  0  0
    9.5530   48.0527  132.5325 C   0  0  0  0  0  0  0  0  0  0  0  0
    8.4579   49.0275  132.7468 C   0  0  0  0  0  0  0  0  0  0  0  0
    7.7487   49.4755  131.5444 C   0  0  0  0  0  0  0  0  0  0  0  0
    7.1997   50.7326  131.5046 C   0  0  0  0  0  0  0  0  0  0  0  0
    6.5157   51.1811  130.3655 C   0  0  0  0  0  0  0  0  0  0  0  0
    5.9476   52.4428  130.2861 O   0  0  0  0  0  0  0  0  0  0  0  0
    6.3954   50.3399  129.2687 C   0  0  0  0  0  0  0  0  0  0  0  0
    6.9496   49.0780  129.3160 C   0  0  0  0  0  0  0  0  0  0  0  0
    7.6295   48.6457  130.4610 C   0  0  0  0  0  0  0  0  0  0  0  0
   10.1671   46.0155  131.2154 C   0  0  0  0  0  0  0  0  0  0  0  0
   11.4824   45.8222  131.8525 C   0  0  0  0  0  0  0  0  0  0  0  0
   11.9089   44.4719  131.2909 C   0  0  0  0  0  0  0  0  0  0  0  0
   11.2438   44.3765  129.9334 C   0  0  0  0  0  0  0  0  0  0  0  0
   12.2881   44.3599  128.9809 O   0  0  0  0  0  0  0  0  0  0  0  0
    5.0165   52.6758  130.5543 H   0  0  0  0  0  0  0  0  0  0  0  0
   13.1512   44.0937  129.4003 H   0  0  0  0  0  0  0  0  0  0  0  0
   10.4702   43.1722  129.7582 C   0  0  0  0  0  0  0  0  0  0  0  0
    9.8214   42.1692  129.6156 C   0  0  0  0  0  0  0  0  0  0  0  0
  2  1  1  0  0  0
  2  3  1  0  0  0
  3  4  1  0  0  0
  4  5  1  0  0  0
  5  6  1  0  0  0
  6  7  1  0  0  0
  7  8  1  0  0  0
  8  9  1  0  0  0
  9 10  2  0  0  0
 10 11  1  0  0  0
 11 12  1  0  0  0
 11 13  2  0  0  0
 13 14  1  0  0  0
 14 15  2  0  0  0
  6 16  1  0  0  0
 16 17  1  0  0  0
 17 18  1  0  0  0
 18 19  1  0  0  0
 19 20  1  0  0  0
 19 23  1  0  0  0
 23 24  3  0  0  0
 16  2  1  0  0  0
 19  2  1  0  0  0
 15  5  1  0  0  0
 15  9  1  0  0  0
 12 21  1  0  0  0
 20 22  1  0  0  0
M  END
> <minimizedAffinity>
0.62623

> <CNNscore>
0.4131167829

> <CNNaffinity>
6.8714036942

> <CNN_VS>
2.8386921883

> <CNNaffinity_variance>
0.6777809858

$$$$
[H]C#C[C@]1(O[H])C([H])([H])C([H])([H])[C@]2([H])[C@]1(C([H])([H])[H])C([H])([H])C([H])([H])[C@]1([H])c3c([H])c([H])c(O[H])c([H])c3C([H])([H])C([H])([H])[C@]12[H]


 24 27  0  0  0  0  0  0  0  0999 V2000
    9.8872   47.6368  129.3156 C   0  0  0  0  0  0  0  0  0  0  0  0
    9.3970   48.1143  130.6388 C   0  0  0  0  0  0  0  0  0  0  0  0
   10.4593   48.0873  131.6841 C   0  0  0  0  0  0  0  0  0  0  0  0
   10.9165   46.6791  131.9129 C   0  0  0  0  0  0  0  0  0  0  0  0
    9.8090   45.7022  132.1444 C   0  0  0  0  0  0  0  0  0  0  0  0
    8.6887   45.8477  131.1133 C   0  0  0  0  0  0  0  0  0  0  0  0
    7.6181   44.8490  131.3525 C   0  0  0  0  0  0  0  0  0  0  0  0
    8.0140   43.5722  131.9917 C   0  0  0  0  0  0  0  0  0  0  0  0
    9.4531   43.2976  132.0471 C   0  0  0  0  0  0  0  0  0  0  0  0
    9.9018   42.0010  132.0235 C   0  0  0  0  0  0  0  0  0  0  0  0
   11.2737   41.7154  132.0772 C   0  0  0  0  0  0  0  0  0  0  0  0
   11.7665   40.4201  132.0557 O   0  0  0  0  0  0  0  0  0  0  0  0
   12.1838   42.7598  132.1551 C   0  0  0  0  0  0  0  0  0  0  0  0
   11.7254   44.0602  132.1784 C   0  0  0  0  0  0  0  0  0  0  0  0
   10.3523   44.3282  132.1240 C   0  0  0  0  0  0  0  0  0  0  0  0
    8.2490   47.2648  131.1867 C   0  0  0  0  0  0  0  0  0  0  0  0
    7.1152   47.6521  130.3277 C   0  0  0  0  0  0  0  0  0  0  0  0
    7.2445   49.1697  130.3006 C   0  0  0  0  0  0  0  0  0  0  0  0
    8.7229   49.4472  130.4782 C   0  0  0  0  0  0  0  0  0  0  0  0
    9.1601   50.0494  129.2763 O   0  0  0  0  0  0  0  0  0  0  0  0
   11.9346   39.8518  132.8570 H   0  0  0  0  0  0  0  0  0  0  0  0
    8.3937   50.4297  128.7669 H   0  0  0  0  0  0  0  0  0  0  0  0
    9.0084   50.3610  131.5565 C   0  0  0  0  0  0  0  0  0  0  0  0
    9.2504   51.1202  132.4579 C   0  0  0  0  0  0  0  0  0  0  0  0
  2  1  1  0  0  0
  2  3  1  0  0  0
  3  4  1  0  0  0
  4  5  1  0  0  0
  5  6  1  0  0  0
  6  7  1  0  0  0
  7  8  1  0  0  0
  8  9  1  0  0  0
  9 10  2  0  0  0
 10 11  1  0  0  0
 11 12  1  0  0  0
 11 13  2  0  0  0
 13 14  1  0  0  0
 14 15  2  0  0  0
  6 16  1  0  0  0
 16 17  1  0  0  0
 17 18  1  0  0  0
 18 19  1  0  0  0
 19 20  1  0  0  0
 19 23  1  0  0  0
 23 24  3  0  0  0
 16  2  1  0  0  0
 19  2  1  0  0  0
 15  5  1  0  0  0
 15  9  1  0  0  0
 12 21  1  0  0  0
 20 22  1  0  0  0
M  END
> <minimizedAffinity>
-2.06581

> <CNNscore>
0.3005519807

> <CNNaffinity>
7.0072579384

> <CNN_VS>
2.1060452461

> <CNNaffinity_variance>
0.9457563162

$$$$
[H]C#C[C@]1(O[H])C([H])([H])C([H])([H])[C@]2([H])[C@]1(C([H])([H])[H])C([H])([H])C([H])([H])[C@]1([H])c3c([H])c([H])c(O[H])c([H])c3C([H])([H])C([H])([H])[C@]12[H]


 24 27  0  0  0  0  0  0  0  0999 V2000
    8.5420   43.1986  130.4954 C   0  0  0  0  0  0  0  0  0  0  0  0
    9.6214   44.0658  129.9457 C   0  0  0  0  0  0  0  0  0  0  0  0
   10.9740   43.6685  130.4297 C   0  0  0  0  0  0  0  0  0  0  0  0
   11.0528   43.8287  131.9172 C   0  0  0  0  0  0  0  0  0  0  0  0
   10.5931   45.1599  132.4182 C   0  0  0  0  0  0  0  0  0  0  0  0
    9.2555   45.5752  131.8036 C   0  0  0  0  0  0  0  0  0  0  0  0
    8.8128   46.8860  132.3392 C   0  0  0  0  0  0  0  0  0  0  0  0
    9.2595   47.2447  133.7056 C   0  0  0  0  0  0  0  0  0  0  0  0
    9.8330   46.1564  134.5033 C   0  0  0  0  0  0  0  0  0  0  0  0
    9.7090   46.1733  135.8698 C   0  0  0  0  0  0  0  0  0  0  0  0
   10.2512   45.1436  136.6523 C   0  0  0  0  0  0  0  0  0  0  0  0
   10.1473   45.1244  138.0343 O   0  0  0  0  0  0  0  0  0  0  0  0
   10.9200   44.0978  136.0325 C   0  0  0  0  0  0  0  0  0  0  0  0
   11.0406   44.0876  134.6587 C   0  0  0  0  0  0  0  0  0  0  0  0
   10.4933   45.1234  133.8921 C   0  0  0  0  0  0  0  0  0  0  0  0
    9.4538   45.5363  130.3319 C   0  0  0  0  0  0  0  0  0  0  0  0
    8.3166   45.9670  129.4985 C   0  0  0  0  0  0  0  0  0  0  0  0
    8.6791   45.3769  128.1416 C   0  0  0  0  0  0  0  0  0  0  0  0
    9.4984   44.1409  128.4504 C   0  0  0  0  0  0  0  0  0  0  0  0
    8.7427   43.0392  127.9884 O   0  0  0  0  0  0  0  0  0  0  0  0
   10.8011   45.5278  138.6692 H   0  0  0  0  0  0  0  0  0  0  0  0
    8.0632   43.3262  127.3195 H   0  0  0  0  0  0  0  0  0  0  0  0
   10.7718   44.1145  127.7743 C   0  0  0  0  0  0  0  0  0  0  0  0
   11.8366   44.0942  127.2146 C   0  0  0  0  0  0  0  0  0  0  0  0
  2  1  1  0  0  0
  2  3  1  0  0  0
  3  4  1  0  0  0
  4  5  1  0  0  0
  5  6  1  0  0  0
  6  7  1  0  0  0
  7  8  1  0  0  0
  8  9  1  0  0  0
  9 10  2  0  0  0
 10 11  1  0  0  0
 11 12  1  0  0  0
 11 13  2  0  0  0
 13 14  1  0  0  0
 14 15  2  0  0  0
  6 16  1  0  0  0
 16 17  1  0  0  0
 17 18  1  0  0  0
 18 19  1  0  0  0
 19 20  1  0  0  0
 19 23  1  0  0  0
 23 24  3  0  0  0
 16  2  1  0  0  0
 19  2  1  0  0  0
 15  5  1  0  0  0
 15  9  1  0  0  0
 12 21  1  0  0  0
 20 22  1  0  0  0
M  END
> <minimizedAffinity>
2.03227

> <CNNscore>
0.2508291006

> <CNNaffinity>
6.9606385231

> <CNN_VS>
1.7459306717

> <CNNaffinity_variance>
0.7244393826

$$$$
[H]C#C[C@]1(O[H])C([H])([H])C([H])([H])[C@]2([H])[C@]1(C([H])([H])[H])C([H])([H])C([H])([H])[C@]1([H])c3c([H])c([H])c(O[H])c([H])c3C([H])([H])C([H])([H])[C@]12[H]


 24 27  0  0  0  0  0  0  0  0999 V2000
    7.8006   47.5491  132.3813 C   0  0  0  0  0  0  0  0  0  0  0  0
    8.3854   48.0045  131.0891 C   0  0  0  0  0  0  0  0  0  0  0  0
    8.0017   47.1255  129.9482 C   0  0  0  0  0  0  0  0  0  0  0  0
    8.5388   45.7436  130.1637 C   0  0  0  0  0  0  0  0  0  0  0  0
    9.9925   45.6949  130.5082 C   0  0  0  0  0  0  0  0  0  0  0  0
   10.3578   46.6974  131.6041 C   0  0  0  0  0  0  0  0  0  0  0  0
   11.7994   46.6073  131.9427 C   0  0  0  0  0  0  0  0  0  0  0  0
   12.4600   45.2955  131.7468 C   0  0  0  0  0  0  0  0  0  0  0  0
   11.5697   44.1508  131.5311 C   0  0  0  0  0  0  0  0  0  0  0  0
   11.9569   42.8989  131.9386 C   0  0  0  0  0  0  0  0  0  0  0  0
   11.1220   41.7897  131.7408 C   0  0  0  0  0  0  0  0  0  0  0  0
   11.4765   40.5100  132.1378 O   0  0  0  0  0  0  0  0  0  0  0  0
    9.8910   41.9657  131.1251 C   0  0  0  0  0  0  0  0  0  0  0  0
    9.5087   43.2267  130.7183 C   0  0  0  0  0  0  0  0  0  0  0  0
   10.3542   44.3236  130.9234 C   0  0  0  0  0  0  0  0  0  0  0  0
    9.9148   48.0249  131.1059 C   0  0  0  0  0  0  0  0  0  0  0  0
   10.2182   49.1879  131.9595 C   0  0  0  0  0  0  0  0  0  0  0  0
    9.2605   50.2387  131.4124 C   0  0  0  0  0  0  0  0  0  0  0  0
    8.0765   49.4595  130.8783 C   0  0  0  0  0  0  0  0  0  0  0  0
    6.9696   49.8223  131.6793 O   0  0  0  0  0  0  0  0  0  0  0  0
   11.9680   39.8466  131.5796 H   0  0  0  0  0  0  0  0  0  0  0  0
    7.1345   50.6851  132.1484 H   0  0  0  0  0  0  0  0  0  0  0  0
    7.7516   49.7781  129.5100 C   0  0  0  0  0  0  0  0  0  0  0  0
    7.4756   50.0422  128.3691 C   0  0  0  0  0  0  0  0  0  0  0  0
  2  1  1  0  0  0
  2  3  1  0  0  0
  3  4  1  0  0  0
  4  5  1  0  0  0
  5  6  1  0  0  0
  6  7  1  0  0  0
  7  8  1  0  0  0
  8  9  1  0  0  0
  9 10  2  0  0  0
 10 11  1  0  0  0
 11 12  1  0  0  0
 11 13  2  0  0  0
 13 14  1  0  0  0
 14 15  2  0  0  0
  6 16  1  0  0  0
 16 17  1  0  0  0
 17 18  1  0  0  0
 18 19  1  0  0  0
 19 20  1  0  0  0
 19 23  1  0  0  0
 23 24  3  0  0  0
 16  2  1  0  0  0
 19  2  1  0  0  0
 15  5  1  0  0  0
 15  9  1  0  0  0
 12 21  1  0  0  0
 20 22  1  0  0  0
M  END
> <minimizedAffinity>
-3.84152

> <CNNscore>
0.2399491370

> <CNNaffinity>
6.9793443680

> <CNN_VS>
1.6746876240

> <CNNaffinity_variance>
0.5421146750

$$$$
[H]C#C[C@]1(O[H])C([H])([H])C([H])([H])[C@]2([H])[C@]1(C([H])([H])[H])C([H])([H])C([H])([H])[C@]1([H])c3c([H])c([H])c(O[H])c([H])c3C([H])([H])C([H])([H])[C@]12[H]


 24 27  0  0  0  0  0  0  0  0999 V2000
    8.5010   48.5460  131.2015 C   0  0  0  0  0  0  0  0  0  0  0  0
    7.7153   47.5336  130.4418 C   0  0  0  0  0  0  0  0  0  0  0  0
    7.0929   46.5111  131.3299 C   0  0  0  0  0  0  0  0  0  0  0  0
    8.1582   45.7358  132.0429 C   0  0  0  0  0  0  0  0  0  0  0  0
    9.2290   45.1966  131.1501 C   0  0  0  0  0  0  0  0  0  0  0  0
    9.7547   46.2545  130.1785 C   0  0  0  0  0  0  0  0  0  0  0  0
   10.8330   45.6981  129.3250 C   0  0  0  0  0  0  0  0  0  0  0  0
   11.6468   44.5982  129.8937 C   0  0  0  0  0  0  0  0  0  0  0  0
   11.5112   44.3748  131.3364 C   0  0  0  0  0  0  0  0  0  0  0  0
   12.5702   43.8755  132.0521 C   0  0  0  0  0  0  0  0  0  0  0  0
   12.4620   43.6525  133.4323 C   0  0  0  0  0  0  0  0  0  0  0  0
   13.5080   43.1498  134.1901 O   0  0  0  0  0  0  0  0  0  0  0  0
   11.2679   43.9417  134.0769 C   0  0  0  0  0  0  0  0  0  0  0  0
   10.2079   44.4432  133.3511 C   0  0  0  0  0  0  0  0  0  0  0  0
   10.3326   44.6602  131.9736 C   0  0  0  0  0  0  0  0  0  0  0  0
    8.5672   46.7540  129.4387 C   0  0  0  0  0  0  0  0  0  0  0  0
    8.8168   47.7472  128.3783 C   0  0  0  0  0  0  0  0  0  0  0  0
    7.4326   48.3518  128.1808 C   0  0  0  0  0  0  0  0  0  0  0  0
    6.7474   48.2270  129.5259 C   0  0  0  0  0  0  0  0  0  0  0  0
    6.5337   49.5467  129.9855 O   0  0  0  0  0  0  0  0  0  0  0  0
   13.6846   42.1844  134.3638 H   0  0  0  0  0  0  0  0  0  0  0  0
    6.5701   50.1982  129.2333 H   0  0  0  0  0  0  0  0  0  0  0  0
    5.4642   47.5730  129.4563 C   0  0  0  0  0  0  0  0  0  0  0  0
    4.3945   47.0247  129.4027 C   0  0  0  0  0  0  0  0  0  0  0  0
  2  1  1  0  0  0
  2  3  1  0  0  0
  3  4  1  0  0  0
  4  5  1  0  0  0
  5  6  1  0  0  0
  6  7  1  0  0  0
  7  8  1  0  0  0
  8  9  1  0  0  0
  9 10  2  0  0  0
 10 11  1  0  0  0
 11 12  1  0  0  0
 11 13  2  0  0  0
 13 14  1  0  0  0
 14 15  2  0  0  0
  6 16  1  0  0  0
 16 17  1  0  0  0
 17 18  1  0  0  0
 18 19  1  0  0  0
 19 20  1  0  0  0
 19 23  1  0  0  0
 23 24  3  0  0  0
 16  2  1  0  0  0
 19  2  1  0  0  0
 15  5  1  0  0  0
 15  9  1  0  0  0
 12 21  1  0  0  0
 20 22  1  0  0  0
M  END
> <minimizedAffinity>
-6.03480

> <CNNscore>
0.1804556549

> <CNNaffinity>
6.7941408157

> <CNN_VS>
1.2260410786

> <CNNaffinity_variance>
0.2286448479

$$$$
[H]C#C[C@]1(O[H])C([H])([H])C([H])([H])[C@]2([H])[C@]1(C([H])([H])[H])C([H])([H])C([H])([H])[C@]1([H])c3c([H])c([H])c(O[H])c([H])c3C([H])([H])C([H])([H])[C@]12[H]


 24 27  0  0  0  0  0  0  0  0999 V2000
    9.6044   44.0692  130.3043 C   0  0  0  0  0  0  0  0  0  0  0  0
   10.8741   44.8180  130.0891 C   0  0  0  0  0  0  0  0  0  0  0  0
   11.7886   44.7396  131.2635 C   0  0  0  0  0  0  0  0  0  0  0  0
   11.1460   45.3791  132.4561 C   0  0  0  0  0  0  0  0  0  0  0  0
   10.5979   46.7462  132.2011 C   0  0  0  0  0  0  0  0  0  0  0  0
    9.7613   46.8011  130.9218 C   0  0  0  0  0  0  0  0  0  0  0  0
    9.2098   48.1618  130.7097 C   0  0  0  0  0  0  0  0  0  0  0  0
    8.9608   48.9868  131.9151 C   0  0  0  0  0  0  0  0  0  0  0  0
    8.9944   48.2796  133.1989 C   0  0  0  0  0  0  0  0  0  0  0  0
    8.2237   48.7245  134.2435 C   0  0  0  0  0  0  0  0  0  0  0  0
    8.2416   48.0644  135.4806 C   0  0  0  0  0  0  0  0  0  0  0  0
    7.4783   48.4823  136.5593 O   0  0  0  0  0  0  0  0  0  0  0  0
    9.0501   46.9488  135.6450 C   0  0  0  0  0  0  0  0  0  0  0  0
    9.8219   46.5075  134.5908 C   0  0  0  0  0  0  0  0  0  0  0  0
    9.7923   47.1781  133.3621 C   0  0  0  0  0  0  0  0  0  0  0  0
   10.6463   46.3091  129.8348 C   0  0  0  0  0  0  0  0  0  0  0  0
   10.0916   46.3282  128.4691 C   0  0  0  0  0  0  0  0  0  0  0  0
   11.0242   45.3717  127.7369 C   0  0  0  0  0  0  0  0  0  0  0  0
   11.4989   44.3928  128.7908 C   0  0  0  0  0  0  0  0  0  0  0  0
   10.9858   43.1295  128.4178 O   0  0  0  0  0  0  0  0  0  0  0  0
    7.7683   49.1341  137.2552 H   0  0  0  0  0  0  0  0  0  0  0  0
   10.7396   43.1136  127.4530 H   0  0  0  0  0  0  0  0  0  0  0  0
   12.9347   44.2800  128.8622 C   0  0  0  0  0  0  0  0  0  0  0  0
   14.1331   44.1899  128.9184 C   0  0  0  0  0  0  0  0  0  0  0  0
  2  1  1  0  0  0
  2  3  1  0  0  0
  3  4  1  0  0  0
  4  5  1  0  0  0
  5  6  1  0  0  0
  6  7  1  0  0  0
  7  8  1  0  0  0
  8  9  1  0  0  0
  9 10  2  0  0  0
 10 11  1  0  0  0
 11 12  1  0  0  0
 11 13  2  0  0  0
 13 14  1  0  0  0
 14 15  2  0  0  0
  6 16  1  0  0  0
 16 17  1  0  0  0
 17 18  1  0  0  0
 18 19  1  0  0  0
 19 20  1  0  0  0
 19 23  1  0  0  0
 23 24  3  0  0  0
 16  2  1  0  0  0
 19  2  1  0  0  0
 15  5  1  0  0  0
 15  9  1  0  0  0
 12 21  1  0  0  0
 20 22  1  0  0  0
M  END
> <minimizedAffinity>
1.15220

> <CNNscore>
0.1786558181

> <CNNaffinity>
6.5984010696

> <CNN_VS>
1.1788427830

> <CNNaffinity_variance>
0.4496007562

$$$$
[H]Oc1c([H])c([H])c([C@@]2([H])Sc3c([H])c(O[H])c([H])c([H])c3O[C@@]2([H])c2c([H])c([H])c(OC([H])([H])[C@@]([H])(N3C([H])([H])C([H])([H])C([H])([H])C([H])([H])C3([H])[H])C([H])([H])[H])c([H])c2[H])c([H])c1[H]


 36 40  0  0  0  0  0  0  0  0999 V2000
    9.1277   45.3679  130.6739 C   0  0  0  0  0  0  0  0  0  0  0  0
   10.3930   45.6870  130.2218 O   0  0  0  0  0  0  0  0  0  0  0  0
   10.9672   44.9893  129.1733 C   0  0  0  0  0  0  0  0  0  0  0  0
   12.3132   44.7105  129.1182 C   0  0  0  0  0  0  0  0  0  0  0  0
   12.8519   44.0122  128.0559 C   0  0  0  0  0  0  0  0  0  0  0  0
   12.0770   43.5684  127.0161 C   0  0  0  0  0  0  0  0  0  0  0  0
   12.6408   42.8647  125.9531 O   0  0  0  0  0  0  0  0  0  0  0  0
   10.7124   43.8502  127.0699 C   0  0  0  0  0  0  0  0  0  0  0  0
   10.1589   44.5428  128.1170 C   0  0  0  0  0  0  0  0  0  0  0  0
    8.4241   44.8916  128.1338 S   0  0  0  0  0  0  0  0  0  0  0  0
    8.0541   45.6930  129.7069 C   0  0  0  0  0  0  0  0  0  0  0  0
   12.9633   43.4403  125.1735 H   0  0  0  0  0  0  0  0  0  0  0  0
    7.7807   47.1015  129.4297 C   0  0  0  0  0  0  0  0  0  0  0  0
    8.6997   48.1007  129.3759 C   0  0  0  0  0  0  0  0  0  0  0  0
    8.3922   49.4350  129.1136 C   0  0  0  0  0  0  0  0  0  0  0  0
    7.0668   49.7513  128.8958 C   0  0  0  0  0  0  0  0  0  0  0  0
    6.7842   51.0915  128.6355 O   0  0  0  0  0  0  0  0  0  0  0  0
    6.0839   48.7909  128.9349 C   0  0  0  0  0  0  0  0  0  0  0  0
    6.4510   47.4943  129.1984 C   0  0  0  0  0  0  0  0  0  0  0  0
    6.7798   51.4713  127.6807 H   0  0  0  0  0  0  0  0  0  0  0  0
    8.4177   46.9996  134.5647 C   0  0  0  0  0  0  0  0  0  0  0  0
    7.9784   45.7327  134.2354 C   0  0  0  0  0  0  0  0  0  0  0  0
    8.1868   45.1819  132.9975 C   0  0  0  0  0  0  0  0  0  0  0  0
    8.8505   45.8968  132.0436 C   0  0  0  0  0  0  0  0  0  0  0  0
    9.2916   47.1518  132.3537 C   0  0  0  0  0  0  0  0  0  0  0  0
    9.0866   47.7219  133.6053 C   0  0  0  0  0  0  0  0  0  0  0  0
    8.1882   47.5369  135.8447 O   0  0  0  0  0  0  0  0  0  0  0  0
    8.9991   47.2247  136.9373 C   0  0  0  0  0  0  0  0  0  0  0  0
   11.0545   48.2346  135.9768 C   0  0  0  0  0  0  0  0  0  0  0  0
   10.4138   46.9700  136.4337 C   0  0  0  0  0  0  0  0  0  0  0  0
   10.4175   45.9140  135.4670 N   0  0  0  0  0  0  0  0  0  0  0  0
   10.1529   44.6233  135.9902 C   0  0  0  0  0  0  0  0  0  0  0  0
   11.3441   43.7063  136.0612 C   0  0  0  0  0  0  0  0  0  0  0  0
   12.0710   43.6142  134.7616 C   0  0  0  0  0  0  0  0  0  0  0  0
   11.7372   44.6990  133.7944 C   0  0  0  0  0  0  0  0  0  0  0  0
   11.3920   46.0099  134.4486 C   0  0  0  0  0  0  0  0  0  0  0  0
 29 30  1  0  0  0
 30 28  1  0  0  0
 28 27  1  0  0  0
 27 21  1  0  0  0
 21 22  2  0  0  0
 22 23  1  0  0  0
 23 24  2  0  0  0
 24 25  1  0  0  0
 25 26  2  0  0  0
 24  1  1  0  0  0
  1  2  1  0  0  0
  2  3  1  0  0  0
  3  4  2  0  0  0
  4  5  1  0  0  0
  5  6  2  0  0  0
  6  7  1  0  0  0
  6  8  1  0  0  0
  8  9  2  0  0  0
  9 10  1  0  0  0
 10 11  1  0  0  0
 11 13  1  0  0  0
 13 14  2  0  0  0
 14 15  1  0  0  0
 15 16  2  0  0  0
 16 17  1  0  0  0
 16 18  1  0  0  0
 18 19  2  0  0  0
 30 31  1  0  0  0
 31 32  1  0  0  0
 32 33  1  0  0  0
 33 34  1  0  0  0
 34 35  1  0  0  0
 35 36  1  0  0  0
 26 21  1  0  0  0
 11  1  1  0  0  0
 19 13  1  0  0  0
 36 31  1  0  0  0
  9  3  1  0  0  0
  7 12  1  0  0  0
 17 20  1  0  0  0
M  END
> <minimizedAffinity>
15.20651

> <CNNscore>
0.4541255832

> <CNNaffinity>
7.7650680542

> <CNN_VS>
3.5263161659

> <CNNaffinity_variance>
1.1178019047

$$$$
[H]Oc1c([H])c([H])c([C@@]2([H])Sc3c([H])c(O[H])c([H])c([H])c3O[C@@]2([H])c2c([H])c([H])c(OC([H])([H])[C@@]([H])(N3C([H])([H])C([H])([H])C([H])([H])C([H])([H])C3([H])[H])C([H])([H])[H])c([H])c2[H])c([H])c1[H]


 36 40  0  0  0  0  0  0  0  0999 V2000
    9.0405   44.7772  130.3762 C   0  0  0  0  0  0  0  0  0  0  0  0
    9.9168   44.2429  129.4522 O   0  0  0  0  0  0  0  0  0  0  0  0
   10.2343   44.9336  128.2955 C   0  0  0  0  0  0  0  0  0  0  0  0
   10.4515   44.3032  127.0923 C   0  0  0  0  0  0  0  0  0  0  0  0
   10.7671   45.0246  125.9580 C   0  0  0  0  0  0  0  0  0  0  0  0
   10.8775   46.3906  125.9786 C   0  0  0  0  0  0  0  0  0  0  0  0
   11.1968   47.1001  124.8220 O   0  0  0  0  0  0  0  0  0  0  0  0
   10.6580   47.0316  127.1974 C   0  0  0  0  0  0  0  0  0  0  0  0
   10.3437   46.3319  128.3349 C   0  0  0  0  0  0  0  0  0  0  0  0
   10.0901   47.1874  129.8631 S   0  0  0  0  0  0  0  0  0  0  0  0
    9.5766   45.9626  131.0838 C   0  0  0  0  0  0  0  0  0  0  0  0
   12.1952   47.2452  124.6632 H   0  0  0  0  0  0  0  0  0  0  0  0
   10.6921   45.7670  132.0072 C   0  0  0  0  0  0  0  0  0  0  0  0
   10.7329   46.1559  133.3083 C   0  0  0  0  0  0  0  0  0  0  0  0
   11.8236   45.9536  134.1530 C   0  0  0  0  0  0  0  0  0  0  0  0
   12.9277   45.3166  133.6245 C   0  0  0  0  0  0  0  0  0  0  0  0
   14.0054   45.1257  134.4880 O   0  0  0  0  0  0  0  0  0  0  0  0
   12.9557   44.8958  132.3160 C   0  0  0  0  0  0  0  0  0  0  0  0
   11.8497   45.1246  131.5350 C   0  0  0  0  0  0  0  0  0  0  0  0
   14.0970   44.2808  135.0658 H   0  0  0  0  0  0  0  0  0  0  0  0
    7.3480   41.8026  132.9438 C   0  0  0  0  0  0  0  0  0  0  0  0
    8.3203   42.6680  133.4045 C   0  0  0  0  0  0  0  0  0  0  0  0
    8.8849   43.6297  132.6074 C   0  0  0  0  0  0  0  0  0  0  0  0
    8.4840   43.7510  131.3088 C   0  0  0  0  0  0  0  0  0  0  0  0
    7.5229   42.9024  130.8377 C   0  0  0  0  0  0  0  0  0  0  0  0
    6.9425   41.9227  131.6358 C   0  0  0  0  0  0  0  0  0  0  0  0
    6.7877   40.8259  133.7874 O   0  0  0  0  0  0  0  0  0  0  0  0
    5.5298   40.9829  134.3720 C   0  0  0  0  0  0  0  0  0  0  0  0
    4.8099   39.8555  136.4644 C   0  0  0  0  0  0  0  0  0  0  0  0
    5.6864   40.9114  135.8853 C   0  0  0  0  0  0  0  0  0  0  0  0
    5.5233   42.2096  136.4664 N   0  0  0  0  0  0  0  0  0  0  0  0
    5.2606   42.2127  137.8594 C   0  0  0  0  0  0  0  0  0  0  0  0
    3.8472   42.5603  138.2421 C   0  0  0  0  0  0  0  0  0  0  0  0
    3.3811   43.8290  137.6106 C   0  0  0  0  0  0  0  0  0  0  0  0
    4.2159   44.2847  136.4621 C   0  0  0  0  0  0  0  0  0  0  0  0
    4.8354   43.1591  135.6781 C   0  0  0  0  0  0  0  0  0  0  0  0
 29 30  1  0  0  0
 30 28  1  0  0  0
 28 27  1  0  0  0
 27 21  1  0  0  0
 21 22  2  0  0  0
 22 23  1  0  0  0
 23 24  2  0  0  0
 24 25  1  0  0  0
 25 26  2  0  0  0
 24  1  1  0  0  0
  1  2  1  0  0  0
  2  3  1  0  0  0
  3  4  2  0  0  0
  4  5  1  0  0  0
  5  6  2  0  0  0
  6  7  1  0  0  0
  6  8  1  0  0  0
  8  9  2  0  0  0
  9 10  1  0  0  0
 10 11  1  0  0  0
 11 13  1  0  0  0
 13 14  2  0  0  0
 14 15  1  0  0  0
 15 16  2  0  0  0
 16 17  1  0  0  0
 16 18  1  0  0  0
 18 19  2  0  0  0
 30 31  1  0  0  0
 31 32  1  0  0  0
 32 33  1  0  0  0
 33 34  1  0  0  0
 34 35  1  0  0  0
 35 36  1  0  0  0
 26 21  1  0  0  0
 11  1  1  0  0  0
 19 13  1  0  0  0
 36 31  1  0  0  0
  9  3  1  0  0  0
  7 12  1  0  0  0
 17 20  1  0  0  0
M  END
> <minimizedAffinity>
53.11699

> <CNNscore>
0.3612859249

> <CNNaffinity>
6.9828500748

> <CNN_VS>
2.5228054523

> <CNNaffinity_variance>
1.5175256729

$$$$
[H]Oc1c([H])c([H])c([C@@]2([H])Sc3c([H])c(O[H])c([H])c([H])c3O[C@@]2([H])c2c([H])c([H])c(OC([H])([H])[C@@]([H])(N3C([H])([H])C([H])([H])C([H])([H])C([H])([H])C3([H])[H])C([H])([H])[H])c([H])c2[H])c([H])c1[H]


 36 40  0  0  0  0  0  0  0  0999 V2000
   10.6550   45.7605  131.1240 C   0  0  0  0  0  0  0  0  0  0  0  0
    9.8205   44.6610  131.0824 O   0  0  0  0  0  0  0  0  0  0  0  0
   10.3131   43.3889  131.3167 C   0  0  0  0  0  0  0  0  0  0  0  0
    9.8444   42.2791  130.6525 C   0  0  0  0  0  0  0  0  0  0  0  0
   10.3591   41.0245  130.9123 C   0  0  0  0  0  0  0  0  0  0  0  0
   11.3523   40.8287  131.8364 C   0  0  0  0  0  0  0  0  0  0  0  0
   11.8583   39.5536  132.0836 O   0  0  0  0  0  0  0  0  0  0  0  0
   11.8285   41.9523  132.5111 C   0  0  0  0  0  0  0  0  0  0  0  0
   11.3295   43.2068  132.2666 C   0  0  0  0  0  0  0  0  0  0  0  0
   11.9537   44.6012  133.1596 S   0  0  0  0  0  0  0  0  0  0  0  0
   11.1575   46.0712  132.4821 C   0  0  0  0  0  0  0  0  0  0  0  0
   11.3788   39.0310  132.8185 H   0  0  0  0  0  0  0  0  0  0  0  0
   10.2008   46.5515  133.4769 C   0  0  0  0  0  0  0  0  0  0  0  0
    9.1665   45.8435  134.0012 C   0  0  0  0  0  0  0  0  0  0  0  0
    8.2724   46.3453  134.9460 C   0  0  0  0  0  0  0  0  0  0  0  0
    8.4581   47.6454  135.3697 C   0  0  0  0  0  0  0  0  0  0  0  0
    7.5518   48.1246  136.3145 O   0  0  0  0  0  0  0  0  0  0  0  0
    9.4839   48.4198  134.8818 C   0  0  0  0  0  0  0  0  0  0  0  0
   10.3310   47.8677  133.9528 C   0  0  0  0  0  0  0  0  0  0  0  0
    7.7165   48.0289  137.3243 H   0  0  0  0  0  0  0  0  0  0  0  0
    9.0241   49.2568  129.2743 C   0  0  0  0  0  0  0  0  0  0  0  0
    8.9647   48.0284  128.6466 C   0  0  0  0  0  0  0  0  0  0  0  0
    9.4800   46.8900  129.2102 C   0  0  0  0  0  0  0  0  0  0  0  0
   10.0770   46.9540  130.4354 C   0  0  0  0  0  0  0  0  0  0  0  0
   10.1439   48.1619  131.0696 C   0  0  0  0  0  0  0  0  0  0  0  0
    9.6252   49.3238  130.5088 C   0  0  0  0  0  0  0  0  0  0  0  0
    8.4855   50.4072  128.6693 O   0  0  0  0  0  0  0  0  0  0  0  0
    7.1903   50.4354  128.1493 C   0  0  0  0  0  0  0  0  0  0  0  0
    6.8657   51.2746  130.4639 C   0  0  0  0  0  0  0  0  0  0  0  0
    6.2096   50.6149  129.3008 C   0  0  0  0  0  0  0  0  0  0  0  0
    5.5618   49.3746  129.6033 N   0  0  0  0  0  0  0  0  0  0  0  0
    5.8599   48.8404  130.8821 C   0  0  0  0  0  0  0  0  0  0  0  0
    6.7645   47.6377  130.8769 C   0  0  0  0  0  0  0  0  0  0  0  0
    6.2863   46.5686  129.9527 C   0  0  0  0  0  0  0  0  0  0  0  0
    5.2735   47.0259  128.9583 C   0  0  0  0  0  0  0  0  0  0  0  0
    5.4451   48.4595  128.5332 C   0  0  0  0  0  0  0  0  0  0  0  0
 29 30  1  0  0  0
 30 28  1  0  0  0
 28 27  1  0  0  0
 27 21  1  0  0  0
 21 22  2  0  0  0
 22 23  1  0  0  0
 23 24  2  0  0  0
 24 25  1  0  0  0
 25 26  2  0  0  0
 24  1  1  0  0  0
  1  2  1  0  0  0
  2  3  1  0  0  0
  3  4  2  0  0  0
  4  5  1  0  0  0
  5  6  2  0  0  0
  6  7  1  0  0  0
  6  8  1  0  0  0
  8  9  2  0  0  0
  9 10  1  0  0  0
 10 11  1  0  0  0
 11 13  1  0  0  0
 13 14  2  0  0  0
 14 15  1  0  0  0
 15 16  2  0  0  0
 16 17  1  0  0  0
 16 18  1  0  0  0
 18 19  2  0  0  0
 30 31  1  0  0  0
 31 32  1  0  0  0
 32 33  1  0  0  0
 33 34  1  0  0  0
 34 35  1  0  0  0
 35 36  1  0  0  0
 26 21  1  0  0  0
 11  1  1  0  0  0
 19 13  1  0  0  0
 36 31  1  0  0  0
  9  3  1  0  0  0
  7 12  1  0  0  0
 17 20  1  0  0  0
M  END
> <minimizedAffinity>
10.96015

> <CNNscore>
0.3565936387

> <CNNaffinity>
7.5716485977

> <CNN_VS>
2.7000017166

> <CNNaffinity_variance>
0.6458972692

$$$$
[H]Oc1c([H])c([H])c([C@@]2([H])Sc3c([H])c(O[H])c([H])c([H])c3O[C@@]2([H])c2c([H])c([H])c(OC([H])([H])[C@@]([H])(N3C([H])([H])C([H])([H])C([H])([H])C([H])([H])C3([H])[H])C([H])([H])[H])c([H])c2[H])c([H])c1[H]


 36 40  0  0  0  0  0  0  0  0999 V2000
    9.6180   45.6857  132.3393 C   0  0  0  0  0  0  0  0  0  0  0  0
   10.9279   45.8931  131.9541 O   0  0  0  0  0  0  0  0  0  0  0  0
   11.9406   45.9598  132.8953 C   0  0  0  0  0  0  0  0  0  0  0  0
   13.0197   46.8028  132.7637 C   0  0  0  0  0  0  0  0  0  0  0  0
   14.0123   46.8426  133.7226 C   0  0  0  0  0  0  0  0  0  0  0  0
   13.9686   46.0505  134.8404 C   0  0  0  0  0  0  0  0  0  0  0  0
   14.9811   46.1063  135.7968 O   0  0  0  0  0  0  0  0  0  0  0  0
   12.8758   45.1950  134.9755 C   0  0  0  0  0  0  0  0  0  0  0  0
   11.8799   45.1414  134.0333 C   0  0  0  0  0  0  0  0  0  0  0  0
   10.5204   44.0276  134.2395 S   0  0  0  0  0  0  0  0  0  0  0  0
    9.3688   44.3315  132.8848 C   0  0  0  0  0  0  0  0  0  0  0  0
   15.7590   45.4622  135.6439 H   0  0  0  0  0  0  0  0  0  0  0  0
    9.4547   43.1946  131.9707 C   0  0  0  0  0  0  0  0  0  0  0  0
    8.5215   42.8329  131.0519 C   0  0  0  0  0  0  0  0  0  0  0  0
    8.6428   41.7339  130.2025 C   0  0  0  0  0  0  0  0  0  0  0  0
    9.7876   40.9709  130.3092 C   0  0  0  0  0  0  0  0  0  0  0  0
    9.8860   39.8777  129.4496 O   0  0  0  0  0  0  0  0  0  0  0  0
   10.7734   41.2787  131.2166 C   0  0  0  0  0  0  0  0  0  0  0  0
   10.5946   42.3740  132.0252 C   0  0  0  0  0  0  0  0  0  0  0  0
   10.3153   39.9539  128.5190 H   0  0  0  0  0  0  0  0  0  0  0  0
    6.6934   46.7764  129.4132 C   0  0  0  0  0  0  0  0  0  0  0  0
    8.0170   46.5999  129.0623 C   0  0  0  0  0  0  0  0  0  0  0  0
    8.9790   46.2536  129.9754 C   0  0  0  0  0  0  0  0  0  0  0  0
    8.6345   46.0726  131.2831 C   0  0  0  0  0  0  0  0  0  0  0  0
    7.3289   46.2434  131.6466 C   0  0  0  0  0  0  0  0  0  0  0  0
    6.3437   46.5946  130.7303 C   0  0  0  0  0  0  0  0  0  0  0  0
    5.7294   47.1318  128.4520 O   0  0  0  0  0  0  0  0  0  0  0  0
    5.5199   48.4568  128.0652 C   0  0  0  0  0  0  0  0  0  0  0  0
    3.9387   50.0336  129.1517 C   0  0  0  0  0  0  0  0  0  0  0  0
    5.2152   49.2821  129.3085 C   0  0  0  0  0  0  0  0  0  0  0  0
    6.3444   50.0878  129.6626 N   0  0  0  0  0  0  0  0  0  0  0  0
    7.3554   50.1687  128.6722 C   0  0  0  0  0  0  0  0  0  0  0  0
    8.6111   49.3971  128.9767 C   0  0  0  0  0  0  0  0  0  0  0  0
    9.1624   49.7147  130.3262 C   0  0  0  0  0  0  0  0  0  0  0  0
    8.2001   50.4009  131.2354 C   0  0  0  0  0  0  0  0  0  0  0  0
    6.7652   50.0070  131.0089 C   0  0  0  0  0  0  0  0  0  0  0  0
 29 30  1  0  0  0
 30 28  1  0  0  0
 28 27  1  0  0  0
 27 21  1  0  0  0
 21 22  2  0  0  0
 22 23  1  0  0  0
 23 24  2  0  0  0
 24 25  1  0  0  0
 25 26  2  0  0  0
 24  1  1  0  0  0
  1  2  1  0  0  0
  2  3  1  0  0  0
  3  4  2  0  0  0
  4  5  1  0  0  0
  5  6  2  0  0  0
  6  7  1  0  0  0
  6  8  1  0  0  0
  8  9  2  0  0  0
  9 10  1  0  0  0
 10 11  1  0  0  0
 11 13  1  0  0  0
 13 14  2  0  0  0
 14 15  1  0  0  0
 15 16  2  0  0  0
 16 17  1  0  0  0
 16 18  1  0  0  0
 18 19  2  0  0  0
 30 31  1  0  0  0
 31 32  1  0  0  0
 32 33  1  0  0  0
 33 34  1  0  0  0
 34 35  1  0  0  0
 35 36  1  0  0  0
 26 21  1  0  0  0
 11  1  1  0  0  0
 19 13  1  0  0  0
 36 31  1  0  0  0
  9  3  1  0  0  0
  7 12  1  0  0  0
 17 20  1  0  0  0
M  END
> <minimizedAffinity>
15.58548

> <CNNscore>
0.3534071147

> <CNNaffinity>
7.4559288025

> <CNN_VS>
2.6349782944

> <CNNaffinity_variance>
0.7139705420

$$$$
[H]Oc1c([H])c([H])c([C@@]2([H])Sc3c([H])c(O[H])c([H])c([H])c3O[C@@]2([H])c2c([H])c([H])c(OC([H])([H])[C@@]([H])(N3C([H])([H])C([H])([H])C([H])([H])C([H])([H])C3([H])[H])C([H])([H])[H])c([H])c2[H])c([H])c1[H]


 36 40  0  0  0  0  0  0  0  0999 V2000
    9.2503   45.2172  131.6205 C   0  0  0  0  0  0  0  0  0  0  0  0
   10.3987   45.5471  132.3130 O   0  0  0  0  0  0  0  0  0  0  0  0
   10.7636   44.8504  133.4520 C   0  0  0  0  0  0  0  0  0  0  0  0
   11.3668   45.4564  134.5296 C   0  0  0  0  0  0  0  0  0  0  0  0
   11.7178   44.7296  135.6499 C   0  0  0  0  0  0  0  0  0  0  0  0
   11.4834   43.3821  135.7390 C   0  0  0  0  0  0  0  0  0  0  0  0
   11.8454   42.6669  136.8793 O   0  0  0  0  0  0  0  0  0  0  0  0
   10.8723   42.7658  134.6476 C   0  0  0  0  0  0  0  0  0  0  0  0
   10.5164   43.4712  133.5260 C   0  0  0  0  0  0  0  0  0  0  0  0
    9.7579   42.6429  132.1585 S   0  0  0  0  0  0  0  0  0  0  0  0
    9.3252   43.9028  130.9422 C   0  0  0  0  0  0  0  0  0  0  0  0
   12.7886   42.2753  136.8652 H   0  0  0  0  0  0  0  0  0  0  0  0
   10.2448   43.7610  129.8154 C   0  0  0  0  0  0  0  0  0  0  0  0
   11.5573   44.1117  129.8032 C   0  0  0  0  0  0  0  0  0  0  0  0
   12.3978   43.9639  128.7007 C   0  0  0  0  0  0  0  0  0  0  0  0
   11.8526   43.4258  127.5529 C   0  0  0  0  0  0  0  0  0  0  0  0
   12.7124   43.2878  126.4642 O   0  0  0  0  0  0  0  0  0  0  0  0
   10.5319   43.0486  127.4942 C   0  0  0  0  0  0  0  0  0  0  0  0
    9.7558   43.2197  128.6139 C   0  0  0  0  0  0  0  0  0  0  0  0
   13.2642   42.4346  126.3111 H   0  0  0  0  0  0  0  0  0  0  0  0
    7.7898   48.2791  129.0134 C   0  0  0  0  0  0  0  0  0  0  0  0
    9.1192   48.2369  129.3839 C   0  0  0  0  0  0  0  0  0  0  0  0
    9.6184   47.2717  130.2196 C   0  0  0  0  0  0  0  0  0  0  0  0
    8.7862   46.3095  130.7128 C   0  0  0  0  0  0  0  0  0  0  0  0
    7.4681   46.3372  130.3556 C   0  0  0  0  0  0  0  0  0  0  0  0
    6.9493   47.3108  129.5090 C   0  0  0  0  0  0  0  0  0  0  0  0
    7.3081   49.2831  128.1535 O   0  0  0  0  0  0  0  0  0  0  0  0
    7.5674   50.6370  128.3742 C   0  0  0  0  0  0  0  0  0  0  0  0
    8.5862   50.4489  130.6312 C   0  0  0  0  0  0  0  0  0  0  0  0
    7.4039   50.9256  129.8608 C   0  0  0  0  0  0  0  0  0  0  0  0
    6.1448   50.4316  130.3301 N   0  0  0  0  0  0  0  0  0  0  0  0
    5.7171   49.2199  129.7316 C   0  0  0  0  0  0  0  0  0  0  0  0
    4.5810   49.3564  128.7541 C   0  0  0  0  0  0  0  0  0  0  0  0
    3.4236   50.1042  129.3259 C   0  0  0  0  0  0  0  0  0  0  0  0
    3.7448   50.8835  130.5560 C   0  0  0  0  0  0  0  0  0  0  0  0
    5.1559   51.4060  130.5920 C   0  0  0  0  0  0  0  0  0  0  0  0
 29 30  1  0  0  0
 30 28  1  0  0  0
 28 27  1  0  0  0
 27 21  1  0  0  0
 21 22  2  0  0  0
 22 23  1  0  0  0
 23 24  2  0  0  0
 24 25  1  0  0  0
 25 26  2  0  0  0
 24  1  1  0  0  0
  1  2  1  0  0  0
  2  3  1  0  0  0
  3  4  2  0  0  0
  4  5  1  0  0  0
  5  6  2  0  0  0
  6  7  1  0  0  0
  6  8  1  0  0  0
  8  9  2  0  0  0
  9 10  1  0  0  0
 10 11  1  0  0  0
 11 13  1  0  0  0
 13 14  2  0  0  0
 14 15  1  0  0  0
 15 16  2  0  0  0
 16 17  1  0  0  0
 16 18  1  0  0  0
 18 19  2  0  0  0
 30 31  1  0  0  0
 31 32  1  0  0  0
 32 33  1  0  0  0
 33 34  1  0  0  0
 34 35  1  0  0  0
 35 36  1  0  0  0
 26 21  1  0  0  0
 11  1  1  0  0  0
 19 13  1  0  0  0
 36 31  1  0  0  0
  9  3  1  0  0  0
  7 12  1  0  0  0
 17 20  1  0  0  0
M  END
> <minimizedAffinity>
16.41331

> <CNNscore>
0.3250910342

> <CNNaffinity>
7.6264925003

> <CNN_VS>
2.4793043137

> <CNNaffinity_variance>
1.2191396952

$$$$
[H]Oc1c([H])c([H])c([C@@]2([H])Sc3c([H])c(O[H])c([H])c([H])c3O[C@@]2([H])c2c([H])c([H])c(OC([H])([H])[C@@]([H])(N3C([H])([H])C([H])([H])C([H])([H])C([H])([H])C3([H])[H])C([H])([H])[H])c([H])c2[H])c([H])c1[H]


 36 40  0  0  0  0  0  0  0  0999 V2000
   10.4051   44.1787  130.5866 C   0  0  0  0  0  0  0  0  0  0  0  0
   11.4978   44.8173  130.0340 O   0  0  0  0  0  0  0  0  0  0  0  0
   12.1361   44.2946  128.9226 C   0  0  0  0  0  0  0  0  0  0  0  0
   13.4976   44.3765  128.7435 C   0  0  0  0  0  0  0  0  0  0  0  0
   14.1008   43.8440  127.6214 C   0  0  0  0  0  0  0  0  0  0  0  0
   13.3767   43.2145  126.6425 C   0  0  0  0  0  0  0  0  0  0  0  0
   14.0053   42.6834  125.5175 O   0  0  0  0  0  0  0  0  0  0  0  0
   11.9965   43.1307  126.8220 C   0  0  0  0  0  0  0  0  0  0  0  0
   11.3793   43.6539  127.9300 C   0  0  0  0  0  0  0  0  0  0  0  0
    9.6223   43.5380  128.1065 S   0  0  0  0  0  0  0  0  0  0  0  0
    9.2009   44.2136  129.7251 C   0  0  0  0  0  0  0  0  0  0  0  0
   14.0953   43.3241  124.7271 H   0  0  0  0  0  0  0  0  0  0  0  0
    8.5472   45.5023  129.5076 C   0  0  0  0  0  0  0  0  0  0  0  0
    9.0911   46.5822  128.8880 C   0  0  0  0  0  0  0  0  0  0  0  0
    8.4312   47.7971  128.7077 C   0  0  0  0  0  0  0  0  0  0  0  0
    7.1434   47.8995  129.1929 C   0  0  0  0  0  0  0  0  0  0  0  0
    6.5043   49.1235  129.0006 O   0  0  0  0  0  0  0  0  0  0  0  0
    6.5307   46.8468  129.8303 C   0  0  0  0  0  0  0  0  0  0  0  0
    7.2337   45.6764  129.9767 C   0  0  0  0  0  0  0  0  0  0  0  0
    5.9444   49.3193  128.1615 H   0  0  0  0  0  0  0  0  0  0  0  0
    9.7462   45.4648  134.6136 C   0  0  0  0  0  0  0  0  0  0  0  0
    8.7442   44.8452  133.8935 C   0  0  0  0  0  0  0  0  0  0  0  0
    8.9216   44.4240  132.6011 C   0  0  0  0  0  0  0  0  0  0  0  0
   10.1253   44.6156  131.9878 C   0  0  0  0  0  0  0  0  0  0  0  0
   11.1269   45.2271  132.6868 C   0  0  0  0  0  0  0  0  0  0  0  0
   10.9598   45.6590  133.9980 C   0  0  0  0  0  0  0  0  0  0  0  0
    9.5326   45.8855  135.9391 O   0  0  0  0  0  0  0  0  0  0  0  0
    9.7221   47.2101  136.3373 C   0  0  0  0  0  0  0  0  0  0  0  0
    7.4363   47.7662  135.5417 C   0  0  0  0  0  0  0  0  0  0  0  0
    8.8820   48.1104  135.4410 C   0  0  0  0  0  0  0  0  0  0  0  0
    9.4044   48.1163  134.1081 N   0  0  0  0  0  0  0  0  0  0  0  0
   10.4593   49.0361  133.8832 C   0  0  0  0  0  0  0  0  0  0  0  0
   10.0899   50.2442  133.0654 C   0  0  0  0  0  0  0  0  0  0  0  0
    9.4188   49.8814  131.7833 C   0  0  0  0  0  0  0  0  0  0  0  0
    8.9052   48.4823  131.7349 C   0  0  0  0  0  0  0  0  0  0  0  0
    8.4585   47.9534  133.0714 C   0  0  0  0  0  0  0  0  0  0  0  0
 29 30  1  0  0  0
 30 28  1  0  0  0
 28 27  1  0  0  0
 27 21  1  0  0  0
 21 22  2  0  0  0
 22 23  1  0  0  0
 23 24  2  0  0  0
 24 25  1  0  0  0
 25 26  2  0  0  0
 24  1  1  0  0  0
  1  2  1  0  0  0
  2  3  1  0  0  0
  3  4  2  0  0  0
  4  5  1  0  0  0
  5  6  2  0  0  0
  6  7  1  0  0  0
  6  8  1  0  0  0
  8  9  2  0  0  0
  9 10  1  0  0  0
 10 11  1  0  0  0
 11 13  1  0  0  0
 13 14  2  0  0  0
 14 15  1  0  0  0
 15 16  2  0  0  0
 16 17  1  0  0  0
 16 18  1  0  0  0
 18 19  2  0  0  0
 30 31  1  0  0  0
 31 32  1  0  0  0
 32 33  1  0  0  0
 33 34  1  0  0  0
 34 35  1  0  0  0
 35 36  1  0  0  0
 26 21  1  0  0  0
 11  1  1  0  0  0
 19 13  1  0  0  0
 36 31  1  0  0  0
  9  3  1  0  0  0
  7 12  1  0  0  0
 17 20  1  0  0  0
M  END
> <minimizedAffinity>
13.55742

> <CNNscore>
0.3171591759

> <CNNaffinity>
7.4912924767

> <CNN_VS>
2.3759322166

> <CNNaffinity_variance>
0.3068103194

$$$$
[H]Oc1c([H])c([H])c([C@@]2([H])Sc3c([H])c(O[H])c([H])c([H])c3O[C@@]2([H])c2c([H])c([H])c(OC([H])([H])[C@@]([H])(N3C([H])([H])C([H])([H])C([H])([H])C([H])([H])C3([H])[H])C([H])([H])[H])c([H])c2[H])c([H])c1[H]


 36 40  0  0  0  0  0  0  0  0999 V2000
    7.8474   47.1429  131.5720 C   0  0  0  0  0  0  0  0  0  0  0  0
    8.5085   47.7318  130.5121 O   0  0  0  0  0  0  0  0  0  0  0  0
    8.0055   48.8715  129.9089 C   0  0  0  0  0  0  0  0  0  0  0  0
    8.1115   49.1023  128.5569 C   0  0  0  0  0  0  0  0  0  0  0  0
    7.5981   50.2514  127.9890 C   0  0  0  0  0  0  0  0  0  0  0  0
    6.9646   51.2070  128.7401 C   0  0  0  0  0  0  0  0  0  0  0  0
    6.4531   52.3601  128.1470 O   0  0  0  0  0  0  0  0  0  0  0  0
    6.8564   50.9752  130.1108 C   0  0  0  0  0  0  0  0  0  0  0  0
    7.3603   49.8396  130.6931 C   0  0  0  0  0  0  0  0  0  0  0  0
    7.2138   49.5965  132.4397 S   0  0  0  0  0  0  0  0  0  0  0  0
    7.8692   47.9569  132.8090 C   0  0  0  0  0  0  0  0  0  0  0  0
    7.1015   53.1477  128.0981 H   0  0  0  0  0  0  0  0  0  0  0  0
    9.1486   48.1378  133.4916 C   0  0  0  0  0  0  0  0  0  0  0  0
   10.1415   48.9879  133.1208 C   0  0  0  0  0  0  0  0  0  0  0  0
   11.3514   49.1236  133.8001 C   0  0  0  0  0  0  0  0  0  0  0  0
   11.5436   48.3401  134.9197 C   0  0  0  0  0  0  0  0  0  0  0  0
   12.7608   48.4935  135.5820 O   0  0  0  0  0  0  0  0  0  0  0  0
   10.5817   47.4584  135.3525 C   0  0  0  0  0  0  0  0  0  0  0  0
    9.4111   47.3710  134.6400 C   0  0  0  0  0  0  0  0  0  0  0  0
   12.8867   49.1783  136.3378 H   0  0  0  0  0  0  0  0  0  0  0  0
    9.1568   43.1408  132.3296 C   0  0  0  0  0  0  0  0  0  0  0  0
    8.2056   43.4057  131.3644 C   0  0  0  0  0  0  0  0  0  0  0  0
    7.7624   44.6755  131.0991 C   0  0  0  0  0  0  0  0  0  0  0  0
    8.2683   45.7282  131.8044 C   0  0  0  0  0  0  0  0  0  0  0  0
    9.2101   45.4829  132.7628 C   0  0  0  0  0  0  0  0  0  0  0  0
    9.6680   44.1998  133.0416 C   0  0  0  0  0  0  0  0  0  0  0  0
    9.5912   41.8259  132.5780 O   0  0  0  0  0  0  0  0  0  0  0  0
   10.5655   41.2052  131.7942 C   0  0  0  0  0  0  0  0  0  0  0  0
   12.3580   42.7962  132.4441 C   0  0  0  0  0  0  0  0  0  0  0  0
   11.5478   42.2650  131.3128 C   0  0  0  0  0  0  0  0  0  0  0  0
   10.8687   43.2626  130.5427 N   0  0  0  0  0  0  0  0  0  0  0  0
   10.0419   42.7588  129.5072 C   0  0  0  0  0  0  0  0  0  0  0  0
   10.5750   42.9517  128.1132 C   0  0  0  0  0  0  0  0  0  0  0  0
   10.9637   44.3663  127.8420 C   0  0  0  0  0  0  0  0  0  0  0  0
   11.1194   45.2044  129.0656 C   0  0  0  0  0  0  0  0  0  0  0  0
   11.6020   44.4386  130.2681 C   0  0  0  0  0  0  0  0  0  0  0  0
 29 30  1  0  0  0
 30 28  1  0  0  0
 28 27  1  0  0  0
 27 21  1  0  0  0
 21 22  2  0  0  0
 22 23  1  0  0  0
 23 24  2  0  0  0
 24 25  1  0  0  0
 25 26  2  0  0  0
 24  1  1  0  0  0
  1  2  1  0  0  0
  2  3  1  0  0  0
  3  4  2  0  0  0
  4  5  1  0  0  0
  5  6  2  0  0  0
  6  7  1  0  0  0
  6  8  1  0  0  0
  8  9  2  0  0  0
  9 10  1  0  0  0
 10 11  1  0  0  0
 11 13  1  0  0  0
 13 14  2  0  0  0
 14 15  1  0  0  0
 15 16  2  0  0  0
 16 17  1  0  0  0
 16 18  1  0  0  0
 18 19  2  0  0  0
 30 31  1  0  0  0
 31 32  1  0  0  0
 32 33  1  0  0  0
 33 34  1  0  0  0
 34 35  1  0  0  0
 35 36  1  0  0  0
 26 21  1  0  0  0
 11  1  1  0  0  0
 19 13  1  0  0  0
 36 31  1  0  0  0
  9  3  1  0  0  0
  7 12  1  0  0  0
 17 20  1  0  0  0
M  END
> <minimizedAffinity>
8.76456

> <CNNscore>
0.2977875173

> <CNNaffinity>
7.2074937820

> <CNN_VS>
2.1463017464

> <CNNaffinity_variance>
0.2730088830

$$$$
[H]Oc1c([H])c([H])c([C@@]2([H])Sc3c([H])c(O[H])c([H])c([H])c3O[C@@]2([H])c2c([H])c([H])c(OC([H])([H])[C@@]([H])(N3C([H])([H])C([H])([H])C([H])([H])C([H])([H])C3([H])[H])C([H])([H])[H])c([H])c2[H])c([H])c1[H]


 36 40  0  0  0  0  0  0  0  0999 V2000
    9.4364   45.0778  130.5286 C   0  0  0  0  0  0  0  0  0  0  0  0
    8.9131   43.9265  131.0834 O   0  0  0  0  0  0  0  0  0  0  0  0
    9.7163   42.8230  131.3134 C   0  0  0  0  0  0  0  0  0  0  0  0
    9.2632   41.5328  131.1629 C   0  0  0  0  0  0  0  0  0  0  0  0
   10.0927   40.4552  131.4018 C   0  0  0  0  0  0  0  0  0  0  0  0
   11.3949   40.6200  131.7966 C   0  0  0  0  0  0  0  0  0  0  0  0
   12.2158   39.5184  132.0323 O   0  0  0  0  0  0  0  0  0  0  0  0
   11.8560   41.9270  131.9500 C   0  0  0  0  0  0  0  0  0  0  0  0
   11.0468   43.0102  131.7175 C   0  0  0  0  0  0  0  0  0  0  0  0
   11.6715   44.6507  131.9415 S   0  0  0  0  0  0  0  0  0  0  0  0
   10.3748   45.7928  131.4239 C   0  0  0  0  0  0  0  0  0  0  0  0
   12.2044   39.1653  132.9906 H   0  0  0  0  0  0  0  0  0  0  0  0
    9.8343   46.4200  132.6281 C   0  0  0  0  0  0  0  0  0  0  0  0
   10.1193   47.6701  133.0773 C   0  0  0  0  0  0  0  0  0  0  0  0
    9.5838   48.2269  134.2380 C   0  0  0  0  0  0  0  0  0  0  0  0
    8.7092   47.4508  134.9707 C   0  0  0  0  0  0  0  0  0  0  0  0
    8.1869   48.0290  136.1269 O   0  0  0  0  0  0  0  0  0  0  0  0
    8.3757   46.1771  134.5753 C   0  0  0  0  0  0  0  0  0  0  0  0
    8.9369   45.6856  133.4225 C   0  0  0  0  0  0  0  0  0  0  0  0
    7.3149   48.5726  136.1175 H   0  0  0  0  0  0  0  0  0  0  0  0
    6.3369   47.5943  128.9905 C   0  0  0  0  0  0  0  0  0  0  0  0
    7.5600   47.5062  128.3560 C   0  0  0  0  0  0  0  0  0  0  0  0
    8.5746   46.7122  128.8241 C   0  0  0  0  0  0  0  0  0  0  0  0
    8.3873   45.9751  129.9568 C   0  0  0  0  0  0  0  0  0  0  0  0
    7.1828   46.0511  130.5965 C   0  0  0  0  0  0  0  0  0  0  0  0
    6.1456   46.8526  130.1321 C   0  0  0  0  0  0  0  0  0  0  0  0
    5.3151   48.4186  128.4846 O   0  0  0  0  0  0  0  0  0  0  0  0
    5.2830   49.7935  128.7247 C   0  0  0  0  0  0  0  0  0  0  0  0
    4.4630   50.8613  130.8115 C   0  0  0  0  0  0  0  0  0  0  0  0
    5.5428   50.0329  130.2063 C   0  0  0  0  0  0  0  0  0  0  0  0
    6.8675   50.5375  130.4062 N   0  0  0  0  0  0  0  0  0  0  0  0
    7.6119   50.7506  129.2187 C   0  0  0  0  0  0  0  0  0  0  0  0
    8.7117   49.7547  128.9669 C   0  0  0  0  0  0  0  0  0  0  0  0
    9.6182   49.5973  130.1413 C   0  0  0  0  0  0  0  0  0  0  0  0
    9.0632   50.1281  131.4195 C   0  0  0  0  0  0  0  0  0  0  0  0
    7.5653   50.0214  131.5210 C   0  0  0  0  0  0  0  0  0  0  0  0
 29 30  1  0  0  0
 30 28  1  0  0  0
 28 27  1  0  0  0
 27 21  1  0  0  0
 21 22  2  0  0  0
 22 23  1  0  0  0
 23 24  2  0  0  0
 24 25  1  0  0  0
 25 26  2  0  0  0
 24  1  1  0  0  0
  1  2  1  0  0  0
  2  3  1  0  0  0
  3  4  2  0  0  0
  4  5  1  0  0  0
  5  6  2  0  0  0
  6  7  1  0  0  0
  6  8  1  0  0  0
  8  9  2  0  0  0
  9 10  1  0  0  0
 10 11  1  0  0  0
 11 13  1  0  0  0
 13 14  2  0  0  0
 14 15  1  0  0  0
 15 16  2  0  0  0
 16 17  1  0  0  0
 16 18  1  0  0  0
 18 19  2  0  0  0
 30 31  1  0  0  0
 31 32  1  0  0  0
 32 33  1  0  0  0
 33 34  1  0  0  0
 34 35  1  0  0  0
 35 36  1  0  0  0
 26 21  1  0  0  0
 11  1  1  0  0  0
 19 13  1  0  0  0
 36 31  1  0  0  0
  9  3  1  0  0  0
  7 12  1  0  0  0
 17 20  1  0  0  0
M  END
> <minimizedAffinity>
9.50105

> <CNNscore>
0.2958850265

> <CNNaffinity>
7.5191626549

> <CNN_VS>
2.2248077393

> <CNNaffinity_variance>
0.3431824744

$$$$
[H]Oc1c([H])c([H])c([C@@]2([H])Sc3c([H])c(O[H])c([H])c([H])c3O[C@@]2([H])c2c([H])c([H])c(OC([H])([H])[C@@]([H])(N3C([H])([H])C([H])([H])C([H])([H])C([H])([H])C3([H])[H])C([H])([H])[H])c([H])c2[H])c([H])c1[H]


 36 40  0  0  0  0  0  0  0  0999 V2000
    9.1483   46.3487  131.1206 C   0  0  0  0  0  0  0  0  0  0  0  0
   10.0574   47.3828  131.0144 O   0  0  0  0  0  0  0  0  0  0  0  0
    9.8406   48.5857  131.6639 C   0  0  0  0  0  0  0  0  0  0  0  0
   10.2026   49.7966  131.1206 C   0  0  0  0  0  0  0  0  0  0  0  0
    9.9713   50.9776  131.7976 C   0  0  0  0  0  0  0  0  0  0  0  0
    9.3754   50.9976  133.0317 C   0  0  0  0  0  0  0  0  0  0  0  0
    9.1506   52.2010  133.6982 O   0  0  0  0  0  0  0  0  0  0  0  0
    9.0080   49.7712  133.5843 C   0  0  0  0  0  0  0  0  0  0  0  0
    9.2297   48.5875  132.9270 C   0  0  0  0  0  0  0  0  0  0  0  0
    8.7611   47.0540  133.6754 S   0  0  0  0  0  0  0  0  0  0  0  0
    9.0889   45.7493  132.4736 C   0  0  0  0  0  0  0  0  0  0  0  0
    9.9105   52.5086  134.3075 H   0  0  0  0  0  0  0  0  0  0  0  0
   10.2502   44.9981  132.9453 C   0  0  0  0  0  0  0  0  0  0  0  0
   10.2652   43.6878  133.3042 C   0  0  0  0  0  0  0  0  0  0  0  0
   11.3979   43.0117  133.7556 C   0  0  0  0  0  0  0  0  0  0  0  0
   12.5746   43.7277  133.8396 C   0  0  0  0  0  0  0  0  0  0  0  0
   13.6933   43.0303  134.2934 O   0  0  0  0  0  0  0  0  0  0  0  0
   12.6325   45.0567  133.4926 C   0  0  0  0  0  0  0  0  0  0  0  0
   11.4822   45.6658  133.0553 C   0  0  0  0  0  0  0  0  0  0  0  0
   14.3240   42.5356  133.6504 H   0  0  0  0  0  0  0  0  0  0  0  0
    9.5453   43.3178  128.1270 C   0  0  0  0  0  0  0  0  0  0  0  0
   10.0151   44.5976  127.9080 C   0  0  0  0  0  0  0  0  0  0  0  0
    9.9010   45.5920  128.8446 C   0  0  0  0  0  0  0  0  0  0  0  0
    9.3045   45.3260  130.0425 C   0  0  0  0  0  0  0  0  0  0  0  0
    8.8345   44.0646  130.2748 C   0  0  0  0  0  0  0  0  0  0  0  0
    8.9439   43.0473  129.3332 C   0  0  0  0  0  0  0  0  0  0  0  0
    9.6778   42.3187  127.1453 O   0  0  0  0  0  0  0  0  0  0  0  0
   10.5740   41.2571  127.2825 C   0  0  0  0  0  0  0  0  0  0  0  0
    9.8711   39.4277  128.8077 C   0  0  0  0  0  0  0  0  0  0  0  0
    9.7781   39.9661  127.4220 C   0  0  0  0  0  0  0  0  0  0  0  0
   10.1446   39.0396  126.3940 N   0  0  0  0  0  0  0  0  0  0  0  0
   11.5319   38.7614  126.3065 C   0  0  0  0  0  0  0  0  0  0  0  0
   12.2330   39.3745  125.1244 C   0  0  0  0  0  0  0  0  0  0  0  0
   11.5476   39.0707  123.8345 C   0  0  0  0  0  0  0  0  0  0  0  0
   10.1480   38.5786  123.9851 C   0  0  0  0  0  0  0  0  0  0  0  0
    9.4304   39.1471  125.1798 C   0  0  0  0  0  0  0  0  0  0  0  0
 29 30  1  0  0  0
 30 28  1  0  0  0
 28 27  1  0  0  0
 27 21  1  0  0  0
 21 22  2  0  0  0
 22 23  1  0  0  0
 23 24  2  0  0  0
 24 25  1  0  0  0
 25 26  2  0  0  0
 24  1  1  0  0  0
  1  2  1  0  0  0
  2  3  1  0  0  0
  3  4  2  0  0  0
  4  5  1  0  0  0
  5  6  2  0  0  0
  6  7  1  0  0  0
  6  8  1  0  0  0
  8  9  2  0  0  0
  9 10  1  0  0  0
 10 11  1  0  0  0
 11 13  1  0  0  0
 13 14  2  0  0  0
 14 15  1  0  0  0
 15 16  2  0  0  0
 16 17  1  0  0  0
 16 18  1  0  0  0
 18 19  2  0  0  0
 30 31  1  0  0  0
 31 32  1  0  0  0
 32 33  1  0  0  0
 33 34  1  0  0  0
 34 35  1  0  0  0
 35 36  1  0  0  0
 26 21  1  0  0  0
 11  1  1  0  0  0
 19 13  1  0  0  0
 36 31  1  0  0  0
  9  3  1  0  0  0
  7 12  1  0  0  0
 17 20  1  0  0  0
M  END
> <minimizedAffinity>
23.40687

> <CNNscore>
0.2819260955

> <CNNaffinity>
7.4865722656

> <CNN_VS>
2.1106600761

> <CNNaffinity_variance>
1.4708483219

$$$$
[H]Oc1c([H])c([H])c([C@@]2([H])Sc3c([H])c(O[H])c([H])c([H])c3O[C@@]2([H])c2c([H])c([H])c(OC([H])([H])[C@@]([H])(N3C([H])([H])C([H])([H])C([H])([H])C3([H])[H])C([H])([H])[H])c([H])c2[H])c([H])c1[H]


 35 39  0  0  0  0  0  0  0  0999 V2000
   10.9817   46.0793  131.1437 C   0  0  0  0  0  0  0  0  0  0  0  0
   10.2409   44.9566  130.7620 O   0  0  0  0  0  0  0  0  0  0  0  0
   10.5825   43.6594  131.1046 C   0  0  0  0  0  0  0  0  0  0  0  0
   10.0786   42.6388  130.3345 C   0  0  0  0  0  0  0  0  0  0  0  0
   10.3625   41.3051  130.5955 C   0  0  0  0  0  0  0  0  0  0  0  0
   11.1818   41.0424  131.6739 C   0  0  0  0  0  0  0  0  0  0  0  0
   11.4724   39.7024  131.9435 O   0  0  0  0  0  0  0  0  0  0  0  0
   11.6937   42.0634  132.4550 C   0  0  0  0  0  0  0  0  0  0  0  0
   11.3896   43.3522  132.1627 C   0  0  0  0  0  0  0  0  0  0  0  0
   12.0719   44.6377  133.1993 S   0  0  0  0  0  0  0  0  0  0  0  0
   11.3509   46.2049  132.5687 C   0  0  0  0  0  0  0  0  0  0  0  0
   12.0836   39.4893  132.7464 H   0  0  0  0  0  0  0  0  0  0  0  0
   10.3479   46.7379  133.4836 C   0  0  0  0  0  0  0  0  0  0  0  0
    9.2364   45.9936  133.8085 C   0  0  0  0  0  0  0  0  0  0  0  0
    8.2661   46.4883  134.6815 C   0  0  0  0  0  0  0  0  0  0  0  0
    8.4059   47.7420  135.2379 C   0  0  0  0  0  0  0  0  0  0  0  0
    7.4167   48.2242  136.1164 O   0  0  0  0  0  0  0  0  0  0  0  0
    9.5031   48.4945  134.9263 C   0  0  0  0  0  0  0  0  0  0  0  0
   10.4492   47.9866  134.0620 C   0  0  0  0  0  0  0  0  0  0  0  0
    7.5737   48.0011  137.1008 H   0  0  0  0  0  0  0  0  0  0  0  0
    8.9164   49.5095  129.6805 C   0  0  0  0  0  0  0  0  0  0  0  0
    8.8511   48.3115  128.9898 C   0  0  0  0  0  0  0  0  0  0  0  0
    9.5395   47.2300  129.4994 C   0  0  0  0  0  0  0  0  0  0  0  0
   10.2861   47.2841  130.6583 C   0  0  0  0  0  0  0  0  0  0  0  0
   10.3366   48.4814  131.3268 C   0  0  0  0  0  0  0  0  0  0  0  0
    9.6552   49.5830  130.8375 C   0  0  0  0  0  0  0  0  0  0  0  0
    8.2273   50.6364  129.1921 O   0  0  0  0  0  0  0  0  0  0  0  0
    7.0447   50.4563  128.4327 C   0  0  0  0  0  0  0  0  0  0  0  0
    6.1905   50.7055  130.7716 C   0  0  0  0  0  0  0  0  0  0  0  0
    5.9238   50.1705  129.3786 C   0  0  0  0  0  0  0  0  0  0  0  0
    5.5607   48.7961  129.4973 N   0  0  0  0  0  0  0  0  0  0  0  0
    5.6457   48.0290  128.2928 C   0  0  0  0  0  0  0  0  0  0  0  0
    5.5277   46.5793  128.7826 C   0  0  0  0  0  0  0  0  0  0  0  0
    5.7635   46.6458  130.2809 C   0  0  0  0  0  0  0  0  0  0  0  0
    6.3742   48.0460  130.4161 C   0  0  0  0  0  0  0  0  0  0  0  0
 29 30  1  0  0  0
 30 28  1  0  0  0
 28 27  1  0  0  0
 27 21  1  0  0  0
 21 22  2  0  0  0
 22 23  1  0  0  0
 23 24  2  0  0  0
 24 25  1  0  0  0
 25 26  2  0  0  0
 24  1  1  0  0  0
  1  2  1  0  0  0
  2  3  1  0  0  0
  3  4  2  0  0  0
  4  5  1  0  0  0
  5  6  2  0  0  0
  6  7  1  0  0  0
  6  8  1  0  0  0
  8  9  2  0  0  0
  9 10  1  0  0  0
 10 11  1  0  0  0
 11 13  1  0  0  0
 13 14  2  0  0  0
 14 15  1  0  0  0
 15 16  2  0  0  0
 16 17  1  0  0  0
 16 18  1  0  0  0
 18 19  2  0  0  0
 30 31  1  0  0  0
 31 32  1  0  0  0
 32 33  1  0  0  0
 33 34  1  0  0  0
 34 35  1  0  0  0
 26 21  1  0  0  0
 11  1  1  0  0  0
 19 13  1  0  0  0
 35 31  1  0  0  0
  9  3  1  0  0  0
  7 12  1  0  0  0
 17 20  1  0  0  0
M  END
> <minimizedAffinity>
6.09077

> <CNNscore>
0.3027350008

> <CNNaffinity>
7.3702383041

> <CNN_VS>
2.2312290668

> <CNNaffinity_variance>
0.3242737949

$$$$
[H]Oc1c([H])c([H])c([C@@]2([H])Sc3c([H])c(O[H])c([H])c([H])c3O[C@@]2([H])c2c([H])c([H])c(OC([H])([H])[C@@]([H])(N3C([H])([H])C([H])([H])C([H])([H])C3([H])[H])C([H])([H])[H])c([H])c2[H])c([H])c1[H]


 35 39  0  0  0  0  0  0  0  0999 V2000
    9.7089   47.7416  130.1467 C   0  0  0  0  0  0  0  0  0  0  0  0
    9.8096   47.9109  131.5310 O   0  0  0  0  0  0  0  0  0  0  0  0
    9.7949   49.1462  132.1559 C   0  0  0  0  0  0  0  0  0  0  0  0
   10.3375   49.2344  133.4153 C   0  0  0  0  0  0  0  0  0  0  0  0
   10.3713   50.4272  134.1249 C   0  0  0  0  0  0  0  0  0  0  0  0
    9.8305   51.5353  133.5060 C   0  0  0  0  0  0  0  0  0  0  0  0
    9.8606   52.7400  134.2135 O   0  0  0  0  0  0  0  0  0  0  0  0
    9.2819   51.4561  132.2382 C   0  0  0  0  0  0  0  0  0  0  0  0
    9.2707   50.2694  131.5822 C   0  0  0  0  0  0  0  0  0  0  0  0
    8.5509   50.2138  129.9477 S   0  0  0  0  0  0  0  0  0  0  0  0
    8.6155   48.4477  129.4475 C   0  0  0  0  0  0  0  0  0  0  0  0
    9.4603   53.5778  133.7645 H   0  0  0  0  0  0  0  0  0  0  0  0
    7.2913   47.8369  129.4708 C   0  0  0  0  0  0  0  0  0  0  0  0
    6.4055   48.0557  128.4400 C   0  0  0  0  0  0  0  0  0  0  0  0
    5.1339   47.4799  128.4464 C   0  0  0  0  0  0  0  0  0  0  0  0
    4.7404   46.6753  129.4946 C   0  0  0  0  0  0  0  0  0  0  0  0
    3.4537   46.1034  129.4836 O   0  0  0  0  0  0  0  0  0  0  0  0
    5.6070   46.4475  130.5260 C   0  0  0  0  0  0  0  0  0  0  0  0
    6.8580   47.0259  130.4997 C   0  0  0  0  0  0  0  0  0  0  0  0
    3.3971   45.1870  129.0355 H   0  0  0  0  0  0  0  0  0  0  0  0
    9.5826   43.5558  129.3496 C   0  0  0  0  0  0  0  0  0  0  0  0
    8.8107   44.0937  130.3651 C   0  0  0  0  0  0  0  0  0  0  0  0
    8.8880   45.4529  130.5889 C   0  0  0  0  0  0  0  0  0  0  0  0
    9.6933   46.2978  129.8533 C   0  0  0  0  0  0  0  0  0  0  0  0
   10.4495   45.7432  128.8516 C   0  0  0  0  0  0  0  0  0  0  0  0
   10.3913   44.3818  128.6055 C   0  0  0  0  0  0  0  0  0  0  0  0
    9.5313   42.1725  129.0904 O   0  0  0  0  0  0  0  0  0  0  0  0
    9.5897   41.2574  130.1707 C   0  0  0  0  0  0  0  0  0  0  0  0
   11.2111   40.4127  131.8793 C   0  0  0  0  0  0  0  0  0  0  0  0
   10.8159   41.5590  130.9696 C   0  0  0  0  0  0  0  0  0  0  0  0
   10.7537   42.7456  131.7588 N   0  0  0  0  0  0  0  0  0  0  0  0
   10.2067   42.5863  133.0710 C   0  0  0  0  0  0  0  0  0  0  0  0
   10.5671   43.9035  133.7715 C   0  0  0  0  0  0  0  0  0  0  0  0
   11.6249   44.5449  132.8913 C   0  0  0  0  0  0  0  0  0  0  0  0
   12.0314   43.3552  132.0132 C   0  0  0  0  0  0  0  0  0  0  0  0
 29 30  1  0  0  0
 30 28  1  0  0  0
 28 27  1  0  0  0
 27 21  1  0  0  0
 21 22  2  0  0  0
 22 23  1  0  0  0
 23 24  2  0  0  0
 24 25  1  0  0  0
 25 26  2  0  0  0
 24  1  1  0  0  0
  1  2  1  0  0  0
  2  3  1  0  0  0
  3  4  2  0  0  0
  4  5  1  0  0  0
  5  6  2  0  0  0
  6  7  1  0  0  0
  6  8  1  0  0  0
  8  9  2  0  0  0
  9 10  1  0  0  0
 10 11  1  0  0  0
 11 13  1  0  0  0
 13 14  2  0  0  0
 14 15  1  0  0  0
 15 16  2  0  0  0
 16 17  1  0  0  0
 16 18  1  0  0  0
 18 19  2  0  0  0
 30 31  1  0  0  0
 31 32  1  0  0  0
 32 33  1  0  0  0
 33 34  1  0  0  0
 34 35  1  0  0  0
 26 21  1  0  0  0
 11  1  1  0  0  0
 19 13  1  0  0  0
 35 31  1  0  0  0
  9  3  1  0  0  0
  7 12  1  0  0  0
 17 20  1  0  0  0
M  END
> <minimizedAffinity>
8.48454

> <CNNscore>
0.2862907052

> <CNNaffinity>
7.3190789223

> <CNN_VS>
2.0953843594

> <CNNaffinity_variance>
0.6640066504

$$$$
[H]Oc1c([H])c([H])c([C@@]2([H])Sc3c([H])c(O[H])c([H])c([H])c3O[C@@]2([H])c2c([H])c([H])c(OC([H])([H])[C@@]([H])(N3C([H])([H])C([H])([H])C([H])([H])C3([H])[H])C([H])([H])[H])c([H])c2[H])c([H])c1[H]


 35 39  0  0  0  0  0  0  0  0999 V2000
    9.6489   48.2221  133.4485 C   0  0  0  0  0  0  0  0  0  0  0  0
    8.5996   48.6678  134.2581 O   0  0  0  0  0  0  0  0  0  0  0  0
    8.4756   49.9725  134.7042 C   0  0  0  0  0  0  0  0  0  0  0  0
    7.7033   50.1988  135.8181 C   0  0  0  0  0  0  0  0  0  0  0  0
    7.5172   51.4702  136.3438 C   0  0  0  0  0  0  0  0  0  0  0  0
    8.1472   52.5112  135.6937 C   0  0  0  0  0  0  0  0  0  0  0  0
    7.9649   53.7942  136.2165 O   0  0  0  0  0  0  0  0  0  0  0  0
    8.9267   52.2930  134.5714 C   0  0  0  0  0  0  0  0  0  0  0  0
    9.0806   51.0335  134.0929 C   0  0  0  0  0  0  0  0  0  0  0  0
   10.0949   50.7991  132.6407 S   0  0  0  0  0  0  0  0  0  0  0  0
    9.9652   49.0112  132.2402 C   0  0  0  0  0  0  0  0  0  0  0  0
    8.4294   54.5833  135.7418 H   0  0  0  0  0  0  0  0  0  0  0  0
    9.1488   48.7875  131.0526 C   0  0  0  0  0  0  0  0  0  0  0  0
    7.9956   49.5125  130.8537 C   0  0  0  0  0  0  0  0  0  0  0  0
    7.2018   49.3108  129.7234 C   0  0  0  0  0  0  0  0  0  0  0  0
    7.5627   48.3736  128.7787 C   0  0  0  0  0  0  0  0  0  0  0  0
    6.7493   48.1840  127.6451 O   0  0  0  0  0  0  0  0  0  0  0  0
    8.7043   47.6450  128.9602 C   0  0  0  0  0  0  0  0  0  0  0  0
    9.4736   47.8603  130.0836 C   0  0  0  0  0  0  0  0  0  0  0  0
    6.9874   48.7728  126.8449 H   0  0  0  0  0  0  0  0  0  0  0  0
    9.0476   44.0962  132.5613 C   0  0  0  0  0  0  0  0  0  0  0  0
   10.2216   44.5137  133.1645 C   0  0  0  0  0  0  0  0  0  0  0  0
   10.3730   45.8593  133.4282 C   0  0  0  0  0  0  0  0  0  0  0  0
    9.4160   46.8045  133.1215 C   0  0  0  0  0  0  0  0  0  0  0  0
    8.2601   46.3683  132.5243 C   0  0  0  0  0  0  0  0  0  0  0  0
    8.0819   45.0232  132.2482 C   0  0  0  0  0  0  0  0  0  0  0  0
    8.8557   42.7305  132.2758 O   0  0  0  0  0  0  0  0  0  0  0  0
    9.3535   42.1945  131.0623 C   0  0  0  0  0  0  0  0  0  0  0  0
    8.8229   43.2187  128.8416 C   0  0  0  0  0  0  0  0  0  0  0  0
    9.6187   43.3293  130.1270 C   0  0  0  0  0  0  0  0  0  0  0  0
   10.9882   43.5279  129.7809 N   0  0  0  0  0  0  0  0  0  0  0  0
   11.2401   44.5650  128.8284 C   0  0  0  0  0  0  0  0  0  0  0  0
   12.7600   44.7625  128.9076 C   0  0  0  0  0  0  0  0  0  0  0  0
   13.1851   44.0644  130.1870 C   0  0  0  0  0  0  0  0  0  0  0  0
   11.8315   43.8936  130.8873 C   0  0  0  0  0  0  0  0  0  0  0  0
 29 30  1  0  0  0
 30 28  1  0  0  0
 28 27  1  0  0  0
 27 21  1  0  0  0
 21 22  2  0  0  0
 22 23  1  0  0  0
 23 24  2  0  0  0
 24 25  1  0  0  0
 25 26  2  0  0  0
 24  1  1  0  0  0
  1  2  1  0  0  0
  2  3  1  0  0  0
  3  4  2  0  0  0
  4  5  1  0  0  0
  5  6  2  0  0  0
  6  7  1  0  0  0
  6  8  1  0  0  0
  8  9  2  0  0  0
  9 10  1  0  0  0
 10 11  1  0  0  0
 11 13  1  0  0  0
 13 14  2  0  0  0
 14 15  1  0  0  0
 15 16  2  0  0  0
 16 17  1  0  0  0
 16 18  1  0  0  0
 18 19  2  0  0  0
 30 31  1  0  0  0
 31 32  1  0  0  0
 32 33  1  0  0  0
 33 34  1  0  0  0
 34 35  1  0  0  0
 26 21  1  0  0  0
 11  1  1  0  0  0
 19 13  1  0  0  0
 35 31  1  0  0  0
  9  3  1  0  0  0
  7 12  1  0  0  0
 17 20  1  0  0  0
M  END
> <minimizedAffinity>
17.50305

> <CNNscore>
0.2269996107

> <CNNaffinity>
7.3301239014

> <CNN_VS>
1.6639353037

> <CNNaffinity_variance>
0.1157114357

$$$$
[H]Oc1c([H])c([H])c([C@@]2([H])Sc3c([H])c(O[H])c([H])c([H])c3O[C@@]2([H])c2c([H])c([H])c(OC([H])([H])[C@@]([H])(N3C([H])([H])C([H])([H])C([H])([H])C3([H])[H])C([H])([H])[H])c([H])c2[H])c([H])c1[H]


 35 39  0  0  0  0  0  0  0  0999 V2000
   10.1412   44.9807  130.4042 C   0  0  0  0  0  0  0  0  0  0  0  0
    9.5607   43.7135  130.5135 O   0  0  0  0  0  0  0  0  0  0  0  0
   10.2421   42.5932  130.9576 C   0  0  0  0  0  0  0  0  0  0  0  0
    9.7452   41.3602  130.6093 C   0  0  0  0  0  0  0  0  0  0  0  0
   10.3556   40.1776  131.0046 C   0  0  0  0  0  0  0  0  0  0  0  0
   11.4966   40.2920  131.7717 C   0  0  0  0  0  0  0  0  0  0  0  0
   12.1172   39.1062  132.1737 O   0  0  0  0  0  0  0  0  0  0  0  0
   12.0043   41.5291  132.1273 C   0  0  0  0  0  0  0  0  0  0  0  0
   11.3746   42.6583  131.7184 C   0  0  0  0  0  0  0  0  0  0  0  0
   12.0650   44.2337  132.2023 S   0  0  0  0  0  0  0  0  0  0  0  0
   10.8891   45.4950  131.5700 C   0  0  0  0  0  0  0  0  0  0  0  0
   12.9713   39.1748  132.7477 H   0  0  0  0  0  0  0  0  0  0  0  0
   10.1223   46.1010  132.6526 C   0  0  0  0  0  0  0  0  0  0  0  0
   10.5901   47.2270  133.2916 C   0  0  0  0  0  0  0  0  0  0  0  0
    9.8698   47.8195  134.3302 C   0  0  0  0  0  0  0  0  0  0  0  0
    8.6671   47.2820  134.7371 C   0  0  0  0  0  0  0  0  0  0  0  0
    7.9548   47.8935  135.7866 O   0  0  0  0  0  0  0  0  0  0  0  0
    8.1879   46.1644  134.1138 C   0  0  0  0  0  0  0  0  0  0  0  0
    8.9153   45.5954  133.0904 C   0  0  0  0  0  0  0  0  0  0  0  0
    7.2924   48.6128  135.4913 H   0  0  0  0  0  0  0  0  0  0  0  0
    7.2040   47.7655  129.0662 C   0  0  0  0  0  0  0  0  0  0  0  0
    8.5257   47.9100  128.6806 C   0  0  0  0  0  0  0  0  0  0  0  0
    9.4413   46.9870  129.1422 C   0  0  0  0  0  0  0  0  0  0  0  0
    9.1052   45.9321  129.9653 C   0  0  0  0  0  0  0  0  0  0  0  0
    7.7895   45.8079  130.3347 C   0  0  0  0  0  0  0  0  0  0  0  0
    6.8496   46.7204  129.8860 C   0  0  0  0  0  0  0  0  0  0  0  0
    6.2397   48.6877  128.6158 O   0  0  0  0  0  0  0  0  0  0  0  0
    5.5537   49.4956  129.5563 C   0  0  0  0  0  0  0  0  0  0  0  0
    6.9577   51.2845  128.5121 C   0  0  0  0  0  0  0  0  0  0  0  0
    6.3667   50.7270  129.7918 C   0  0  0  0  0  0  0  0  0  0  0  0
    7.4228   50.5891  130.7406 N   0  0  0  0  0  0  0  0  0  0  0  0
    7.2832   49.5078  131.6668 C   0  0  0  0  0  0  0  0  0  0  0  0
    8.6718   49.4084  132.3130 C   0  0  0  0  0  0  0  0  0  0  0  0
    9.5885   50.2148  131.4106 C   0  0  0  0  0  0  0  0  0  0  0  0
    8.7155   50.3497  130.1570 C   0  0  0  0  0  0  0  0  0  0  0  0
 29 30  1  0  0  0
 30 28  1  0  0  0
 28 27  1  0  0  0
 27 21  1  0  0  0
 21 22  2  0  0  0
 22 23  1  0  0  0
 23 24  2  0  0  0
 24 25  1  0  0  0
 25 26  2  0  0  0
 24  1  1  0  0  0
  1  2  1  0  0  0
  2  3  1  0  0  0
  3  4  2  0  0  0
  4  5  1  0  0  0
  5  6  2  0  0  0
  6  7  1  0  0  0
  6  8  1  0  0  0
  8  9  2  0  0  0
  9 10  1  0  0  0
 10 11  1  0  0  0
 11 13  1  0  0  0
 13 14  2  0  0  0
 14 15  1  0  0  0
 15 16  2  0  0  0
 16 17  1  0  0  0
 16 18  1  0  0  0
 18 19  2  0  0  0
 30 31  1  0  0  0
 31 32  1  0  0  0
 32 33  1  0  0  0
 33 34  1  0  0  0
 34 35  1  0  0  0
 26 21  1  0  0  0
 11  1  1  0  0  0
 19 13  1  0  0  0
 35 31  1  0  0  0
  9  3  1  0  0  0
  7 12  1  0  0  0
 17 20  1  0  0  0
M  END
> <minimizedAffinity>
6.48432

> <CNNscore>
0.2228077501

> <CNNaffinity>
7.3653516769

> <CNN_VS>
1.6410574913

> <CNNaffinity_variance>
0.1349612772

$$$$
[H]Oc1c([H])c([H])c([C@@]2([H])Sc3c([H])c(O[H])c([H])c([H])c3O[C@@]2([H])c2c([H])c([H])c(OC([H])([H])[C@@]([H])(N3C([H])([H])C([H])([H])C([H])([H])C3([H])[H])C([H])([H])[H])c([H])c2[H])c([H])c1[H]


 35 39  0  0  0  0  0  0  0  0999 V2000
    9.6333   48.3253  131.5460 C   0  0  0  0  0  0  0  0  0  0  0  0
    8.2706   48.6384  131.5485 O   0  0  0  0  0  0  0  0  0  0  0  0
    7.6876   49.5341  130.6685 C   0  0  0  0  0  0  0  0  0  0  0  0
    6.4874   50.0983  131.0287 C   0  0  0  0  0  0  0  0  0  0  0  0
    5.8233   51.0073  130.2162 C   0  0  0  0  0  0  0  0  0  0  0  0
    6.4251   51.3252  129.0162 C   0  0  0  0  0  0  0  0  0  0  0  0
    5.7631   52.2394  128.1923 O   0  0  0  0  0  0  0  0  0  0  0  0
    7.6333   50.7621  128.6449 C   0  0  0  0  0  0  0  0  0  0  0  0
    8.2464   49.8784  129.4707 C   0  0  0  0  0  0  0  0  0  0  0  0
    9.8044   49.1755  128.9498 S   0  0  0  0  0  0  0  0  0  0  0  0
   10.2506   47.9615  130.2540 C   0  0  0  0  0  0  0  0  0  0  0  0
    6.2000   52.4876  127.2917 H   0  0  0  0  0  0  0  0  0  0  0  0
   10.0847   46.5900  129.7867 C   0  0  0  0  0  0  0  0  0  0  0  0
    8.8265   46.0778  129.5638 C   0  0  0  0  0  0  0  0  0  0  0  0
    8.6492   44.7671  129.1175 C   0  0  0  0  0  0  0  0  0  0  0  0
    9.7410   43.9563  128.8906 C   0  0  0  0  0  0  0  0  0  0  0  0
    9.5424   42.6369  128.4406 O   0  0  0  0  0  0  0  0  0  0  0  0
   10.9972   44.4485  129.1067 C   0  0  0  0  0  0  0  0  0  0  0  0
   11.1497   45.7457  129.5474 C   0  0  0  0  0  0  0  0  0  0  0  0
    9.5180   42.5308  127.4249 H   0  0  0  0  0  0  0  0  0  0  0  0
   10.4294   45.3713  134.5145 C   0  0  0  0  0  0  0  0  0  0  0  0
   11.4756   46.0061  133.8672 C   0  0  0  0  0  0  0  0  0  0  0  0
   11.1690   46.9518  132.9108 C   0  0  0  0  0  0  0  0  0  0  0  0
    9.8768   47.2940  132.5698 C   0  0  0  0  0  0  0  0  0  0  0  0
    8.8554   46.6525  133.2242 C   0  0  0  0  0  0  0  0  0  0  0  0
    9.1347   45.6989  134.1885 C   0  0  0  0  0  0  0  0  0  0  0  0
   10.7018   44.3997  135.4969 O   0  0  0  0  0  0  0  0  0  0  0  0
   11.7307   43.4512  135.2741 C   0  0  0  0  0  0  0  0  0  0  0  0
   12.4914   43.2368  132.8998 C   0  0  0  0  0  0  0  0  0  0  0  0
   11.4872   42.8038  133.9495 C   0  0  0  0  0  0  0  0  0  0  0  0
   10.1796   42.9894  133.4105 N   0  0  0  0  0  0  0  0  0  0  0  0
   10.0728   42.8562  131.9903 C   0  0  0  0  0  0  0  0  0  0  0  0
    8.5589   42.7752  131.7511 C   0  0  0  0  0  0  0  0  0  0  0  0
    7.9559   42.4927  133.1155 C   0  0  0  0  0  0  0  0  0  0  0  0
    9.2005   42.0550  133.8973 C   0  0  0  0  0  0  0  0  0  0  0  0
 29 30  1  0  0  0
 30 28  1  0  0  0
 28 27  1  0  0  0
 27 21  1  0  0  0
 21 22  2  0  0  0
 22 23  1  0  0  0
 23 24  2  0  0  0
 24 25  1  0  0  0
 25 26  2  0  0  0
 24  1  1  0  0  0
  1  2  1  0  0  0
  2  3  1  0  0  0
  3  4  2  0  0  0
  4  5  1  0  0  0
  5  6  2  0  0  0
  6  7  1  0  0  0
  6  8  1  0  0  0
  8  9  2  0  0  0
  9 10  1  0  0  0
 10 11  1  0  0  0
 11 13  1  0  0  0
 13 14  2  0  0  0
 14 15  1  0  0  0
 15 16  2  0  0  0
 16 17  1  0  0  0
 16 18  1  0  0  0
 18 19  2  0  0  0
 30 31  1  0  0  0
 31 32  1  0  0  0
 32 33  1  0  0  0
 33 34  1  0  0  0
 34 35  1  0  0  0
 26 21  1  0  0  0
 11  1  1  0  0  0
 19 13  1  0  0  0
 35 31  1  0  0  0
  9  3  1  0  0  0
  7 12  1  0  0  0
 17 20  1  0  0  0
M  END
> <minimizedAffinity>
2.23209

> <CNNscore>
0.1972110122

> <CNNaffinity>
7.5174446106

> <CNN_VS>
1.4825228453

> <CNNaffinity_variance>
0.2770299613

$$$$
[H]Oc1c([H])c([H])c([C@@]2([H])Sc3c([H])c(O[H])c([H])c([H])c3O[C@@]2([H])c2c([H])c([H])c(OC([H])([H])[C@@]([H])(N3C([H])([H])C([H])([H])C([H])([H])C3([H])[H])C([H])([H])[H])c([H])c2[H])c([H])c1[H]


 35 39  0  0  0  0  0  0  0  0999 V2000
   11.1353   47.5798  131.4819 C   0  0  0  0  0  0  0  0  0  0  0  0
   11.2304   46.6945  130.4039 O   0  0  0  0  0  0  0  0  0  0  0  0
   12.1812   45.6921  130.3159 C   0  0  0  0  0  0  0  0  0  0  0  0
   12.4744   45.1938  129.0693 C   0  0  0  0  0  0  0  0  0  0  0  0
   13.4126   44.1889  128.8757 C   0  0  0  0  0  0  0  0  0  0  0  0
   14.0468   43.7041  130.0009 C   0  0  0  0  0  0  0  0  0  0  0  0
   14.9926   42.6924  129.8147 O   0  0  0  0  0  0  0  0  0  0  0  0
   13.7581   44.1996  131.2601 C   0  0  0  0  0  0  0  0  0  0  0  0
   12.8340   45.1819  131.4017 C   0  0  0  0  0  0  0  0  0  0  0  0
   12.4924   45.7903  133.0467 S   0  0  0  0  0  0  0  0  0  0  0  0
   11.1295   47.0047  132.8428 C   0  0  0  0  0  0  0  0  0  0  0  0
   15.4757   42.3193  130.6460 H   0  0  0  0  0  0  0  0  0  0  0  0
    9.8668   46.4811  133.3512 C   0  0  0  0  0  0  0  0  0  0  0  0
    9.3557   46.9345  134.5463 C   0  0  0  0  0  0  0  0  0  0  0  0
    8.1492   46.4438  135.0482 C   0  0  0  0  0  0  0  0  0  0  0  0
    7.4429   45.4881  134.3492 C   0  0  0  0  0  0  0  0  0  0  0  0
    6.2277   45.0049  134.8714 O   0  0  0  0  0  0  0  0  0  0  0  0
    7.9355   45.0268  133.1611 C   0  0  0  0  0  0  0  0  0  0  0  0
    9.1289   45.5250  132.6837 C   0  0  0  0  0  0  0  0  0  0  0  0
    5.3995   45.5270  134.5798 H   0  0  0  0  0  0  0  0  0  0  0  0
    7.7442   50.1050  130.9378 C   0  0  0  0  0  0  0  0  0  0  0  0
    7.7894   49.2215  132.0026 C   0  0  0  0  0  0  0  0  0  0  0  0
    8.9054   48.4213  132.1353 C   0  0  0  0  0  0  0  0  0  0  0  0
    9.9732   48.4587  131.2626 C   0  0  0  0  0  0  0  0  0  0  0  0
    9.9073   49.3421  130.2146 C   0  0  0  0  0  0  0  0  0  0  0  0
    8.7989   50.1569  130.0575 C   0  0  0  0  0  0  0  0  0  0  0  0
    6.6218   50.9386  130.7683 O   0  0  0  0  0  0  0  0  0  0  0  0
    5.3545   50.3591  130.5113 C   0  0  0  0  0  0  0  0  0  0  0  0
    4.1587   48.8857  128.8799 C   0  0  0  0  0  0  0  0  0  0  0  0
    5.4918   49.4419  129.3396 C   0  0  0  0  0  0  0  0  0  0  0  0
    6.3858   48.3458  129.5240 N   0  0  0  0  0  0  0  0  0  0  0  0
    5.7792   47.1165  129.9328 C   0  0  0  0  0  0  0  0  0  0  0  0
    6.8941   46.0817  129.7287 C   0  0  0  0  0  0  0  0  0  0  0  0
    7.9260   46.7762  128.8581 C   0  0  0  0  0  0  0  0  0  0  0  0
    7.1131   47.9695  128.3415 C   0  0  0  0  0  0  0  0  0  0  0  0
 29 30  1  0  0  0
 30 28  1  0  0  0
 28 27  1  0  0  0
 27 21  1  0  0  0
 21 22  2  0  0  0
 22 23  1  0  0  0
 23 24  2  0  0  0
 24 25  1  0  0  0
 25 26  2  0  0  0
 24  1  1  0  0  0
  1  2  1  0  0  0
  2  3  1  0  0  0
  3  4  2  0  0  0
  4  5  1  0  0  0
  5  6  2  0  0  0
  6  7  1  0  0  0
  6  8  1  0  0  0
  8  9  2  0  0  0
  9 10  1  0  0  0
 10 11  1  0  0  0
 11 13  1  0  0  0
 13 14  2  0  0  0
 14 15  1  0  0  0
 15 16  2  0  0  0
 16 17  1  0  0  0
 16 18  1  0  0  0
 18 19  2  0  0  0
 30 31  1  0  0  0
 31 32  1  0  0  0
 32 33  1  0  0  0
 33 34  1  0  0  0
 34 35  1  0  0  0
 26 21  1  0  0  0
 11  1  1  0  0  0
 19 13  1  0  0  0
 35 31  1  0  0  0
  9  3  1  0  0  0
  7 12  1  0  0  0
 17 20  1  0  0  0
M  END
> <minimizedAffinity>
9.78165

> <CNNscore>
0.1936172098

> <CNNaffinity>
7.0281915665

> <CNN_VS>
1.3607788086

> <CNNaffinity_variance>
0.1789570749

$$$$
[H]Oc1c([H])c([H])c([C@@]2([H])Sc3c([H])c(O[H])c([H])c([H])c3O[C@@]2([H])c2c([H])c([H])c(OC([H])([H])[C@@]([H])(N3C([H])([H])C([H])([H])C([H])([H])C3([H])[H])C([H])([H])[H])c([H])c2[H])c([H])c1[H]


 35 39  0  0  0  0  0  0  0  0999 V2000
    8.5294   47.7411  131.6641 C   0  0  0  0  0  0  0  0  0  0  0  0
    7.3794   48.0059  130.9142 O   0  0  0  0  0  0  0  0  0  0  0  0
    7.1850   49.1720  130.1937 C   0  0  0  0  0  0  0  0  0  0  0  0
    5.8943   49.5243  129.8797 C   0  0  0  0  0  0  0  0  0  0  0  0
    5.5948   50.6740  129.1614 C   0  0  0  0  0  0  0  0  0  0  0  0
    6.6598   51.4589  128.7703 C   0  0  0  0  0  0  0  0  0  0  0  0
    6.3669   52.6181  128.0469 O   0  0  0  0  0  0  0  0  0  0  0  0
    7.9626   51.1123  129.0818 C   0  0  0  0  0  0  0  0  0  0  0  0
    8.2082   49.9795  129.7857 C   0  0  0  0  0  0  0  0  0  0  0  0
    9.9059   49.5707  130.1641 S   0  0  0  0  0  0  0  0  0  0  0  0
    9.8374   47.9400  131.0067 C   0  0  0  0  0  0  0  0  0  0  0  0
    7.1522   53.2157  127.7472 H   0  0  0  0  0  0  0  0  0  0  0  0
   10.3314   46.8721  130.1449 C   0  0  0  0  0  0  0  0  0  0  0  0
    9.8169   46.7047  128.8791 C   0  0  0  0  0  0  0  0  0  0  0  0
   10.2772   45.6875  128.0413 C   0  0  0  0  0  0  0  0  0  0  0  0
   11.2636   44.8256  128.4715 C   0  0  0  0  0  0  0  0  0  0  0  0
   11.7151   43.8055  127.6123 O   0  0  0  0  0  0  0  0  0  0  0  0
   11.7855   44.9773  129.7251 C   0  0  0  0  0  0  0  0  0  0  0  0
   11.3166   45.9886  130.5361 C   0  0  0  0  0  0  0  0  0  0  0  0
   12.4995   44.0676  127.0128 H   0  0  0  0  0  0  0  0  0  0  0  0
    8.1993   43.7886  133.2266 C   0  0  0  0  0  0  0  0  0  0  0  0
    8.0253   44.0177  131.8725 C   0  0  0  0  0  0  0  0  0  0  0  0
    8.1371   45.3139  131.4137 C   0  0  0  0  0  0  0  0  0  0  0  0
    8.4126   46.3877  132.2349 C   0  0  0  0  0  0  0  0  0  0  0  0
    8.5817   46.1375  133.5735 C   0  0  0  0  0  0  0  0  0  0  0  0
    8.4747   44.8460  134.0610 C   0  0  0  0  0  0  0  0  0  0  0  0
    8.0928   42.4790  133.7334 O   0  0  0  0  0  0  0  0  0  0  0  0
    9.2259   41.6283  133.7128 C   0  0  0  0  0  0  0  0  0  0  0  0
   11.1750   41.1317  132.2240 C   0  0  0  0  0  0  0  0  0  0  0  0
   10.2045   42.1813  132.7283 C   0  0  0  0  0  0  0  0  0  0  0  0
   10.9637   43.2994  133.1846 N   0  0  0  0  0  0  0  0  0  0  0  0
   11.2490   43.3213  134.5862 C   0  0  0  0  0  0  0  0  0  0  0  0
   12.3193   44.4135  134.7168 C   0  0  0  0  0  0  0  0  0  0  0  0
   12.8156   44.6543  133.3023 C   0  0  0  0  0  0  0  0  0  0  0  0
   12.2674   43.4131  132.5877 C   0  0  0  0  0  0  0  0  0  0  0  0
 29 30  1  0  0  0
 30 28  1  0  0  0
 28 27  1  0  0  0
 27 21  1  0  0  0
 21 22  2  0  0  0
 22 23  1  0  0  0
 23 24  2  0  0  0
 24 25  1  0  0  0
 25 26  2  0  0  0
 24  1  1  0  0  0
  1  2  1  0  0  0
  2  3  1  0  0  0
  3  4  2  0  0  0
  4  5  1  0  0  0
  5  6  2  0  0  0
  6  7  1  0  0  0
  6  8  1  0  0  0
  8  9  2  0  0  0
  9 10  1  0  0  0
 10 11  1  0  0  0
 11 13  1  0  0  0
 13 14  2  0  0  0
 14 15  1  0  0  0
 15 16  2  0  0  0
 16 17  1  0  0  0
 16 18  1  0  0  0
 18 19  2  0  0  0
 30 31  1  0  0  0
 31 32  1  0  0  0
 32 33  1  0  0  0
 33 34  1  0  0  0
 34 35  1  0  0  0
 26 21  1  0  0  0
 11  1  1  0  0  0
 19 13  1  0  0  0
 35 31  1  0  0  0
  9  3  1  0  0  0
  7 12  1  0  0  0
 17 20  1  0  0  0
M  END
> <minimizedAffinity>
1.97141

> <CNNscore>
0.1711472124

> <CNNaffinity>
7.1925592422

> <CNN_VS>
1.2309864759

> <CNNaffinity_variance>
0.1283081472

$$$$
[H]Oc1c([H])c([H])c([C@@]2([H])Sc3c([H])c(O[H])c([H])c([H])c3O[C@@]2([H])c2c([H])c([H])c(OC([H])([H])[C@@]([H])(N3C([H])([H])C([H])([H])C([H])([H])C3([H])[H])C([H])([H])[H])c([H])c2[H])c([H])c1[H]


 35 39  0  0  0  0  0  0  0  0999 V2000
    9.6114   47.8086  130.2621 C   0  0  0  0  0  0  0  0  0  0  0  0
    8.5097   48.2887  130.9768 O   0  0  0  0  0  0  0  0  0  0  0  0
    7.4111   48.8863  130.3828 C   0  0  0  0  0  0  0  0  0  0  0  0
    6.6262   49.7027  131.1611 C   0  0  0  0  0  0  0  0  0  0  0  0
    5.5039   50.3478  130.6593 C   0  0  0  0  0  0  0  0  0  0  0  0
    5.2045   50.1328  129.3299 C   0  0  0  0  0  0  0  0  0  0  0  0
    4.0763   50.7784  128.8170 O   0  0  0  0  0  0  0  0  0  0  0  0
    5.9889   49.3124  128.5386 C   0  0  0  0  0  0  0  0  0  0  0  0
    7.0765   48.7024  129.0715 C   0  0  0  0  0  0  0  0  0  0  0  0
    8.0595   47.6510  128.0128 S   0  0  0  0  0  0  0  0  0  0  0  0
    9.3473   46.9284  129.1051 C   0  0  0  0  0  0  0  0  0  0  0  0
    3.8389   50.6280  127.8247 H   0  0  0  0  0  0  0  0  0  0  0  0
    9.0914   45.5177  129.3722 C   0  0  0  0  0  0  0  0  0  0  0  0
    8.0861   45.1436  130.2351 C   0  0  0  0  0  0  0  0  0  0  0  0
    7.8279   43.7982  130.5029 C   0  0  0  0  0  0  0  0  0  0  0  0
    8.5823   42.8127  129.9025 C   0  0  0  0  0  0  0  0  0  0  0  0
    8.3072   41.4609  130.1850 O   0  0  0  0  0  0  0  0  0  0  0  0
    9.5842   43.1661  129.0433 C   0  0  0  0  0  0  0  0  0  0  0  0
    9.8221   44.5006  128.7928 C   0  0  0  0  0  0  0  0  0  0  0  0
    7.6253   41.0243  129.5622 H   0  0  0  0  0  0  0  0  0  0  0  0
   12.2622   46.0264  133.0851 C   0  0  0  0  0  0  0  0  0  0  0  0
   11.2835   46.9081  133.5108 C   0  0  0  0  0  0  0  0  0  0  0  0
   10.4519   47.4633  132.5603 C   0  0  0  0  0  0  0  0  0  0  0  0
   10.5478   47.1838  131.2127 C   0  0  0  0  0  0  0  0  0  0  0  0
   11.5248   46.3069  130.8132 C   0  0  0  0  0  0  0  0  0  0  0  0
   12.3733   45.7352  131.7461 C   0  0  0  0  0  0  0  0  0  0  0  0
   13.1307   45.4390  134.0252 O   0  0  0  0  0  0  0  0  0  0  0  0
   12.6438   44.4252  134.8871 C   0  0  0  0  0  0  0  0  0  0  0  0
   12.7444   43.0493  132.7993 C   0  0  0  0  0  0  0  0  0  0  0  0
   11.9607   43.3925  134.0506 C   0  0  0  0  0  0  0  0  0  0  0  0
   10.6254   43.7083  133.6607 N   0  0  0  0  0  0  0  0  0  0  0  0
    9.7850   42.5872  133.3722 C   0  0  0  0  0  0  0  0  0  0  0  0
    8.3787   43.1992  133.3151 C   0  0  0  0  0  0  0  0  0  0  0  0
    8.5156   44.5694  133.9544 C   0  0  0  0  0  0  0  0  0  0  0  0
    9.8736   44.4288  134.6529 C   0  0  0  0  0  0  0  0  0  0  0  0
 29 30  1  0  0  0
 30 28  1  0  0  0
 28 27  1  0  0  0
 27 21  1  0  0  0
 21 22  2  0  0  0
 22 23  1  0  0  0
 23 24  2  0  0  0
 24 25  1  0  0  0
 25 26  2  0  0  0
 24  1  1  0  0  0
  1  2  1  0  0  0
  2  3  1  0  0  0
  3  4  2  0  0  0
  4  5  1  0  0  0
  5  6  2  0  0  0
  6  7  1  0  0  0
  6  8  1  0  0  0
  8  9  2  0  0  0
  9 10  1  0  0  0
 10 11  1  0  0  0
 11 13  1  0  0  0
 13 14  2  0  0  0
 14 15  1  0  0  0
 15 16  2  0  0  0
 16 17  1  0  0  0
 16 18  1  0  0  0
 18 19  2  0  0  0
 30 31  1  0  0  0
 31 32  1  0  0  0
 32 33  1  0  0  0
 33 34  1  0  0  0
 34 35  1  0  0  0
 26 21  1  0  0  0
 11  1  1  0  0  0
 19 13  1  0  0  0
 35 31  1  0  0  0
  9  3  1  0  0  0
  7 12  1  0  0  0
 17 20  1  0  0  0
M  END
> <minimizedAffinity>
1.99905

> <CNNscore>
0.1705988795

> <CNNaffinity>
7.4936966896

> <CNN_VS>
1.2784162760

> <CNNaffinity_variance>
0.2619778514

$$$$
[H]Oc1c([H])c([H])c([C@@]2([H])Sc3c([H])c(O[H])c([H])c([H])c3O[C@@]2([H])c2c([H])c([H])c(OC([H])([H])[C@@]([H])(N3C([H])([H])C([H])([H])C([H])([H])C3([H])[H])C([H])([H])[H])c([H])c2[H])c([H])c1[H]


 35 39  0  0  0  0  0  0  0  0999 V2000
   10.4320   47.2992  130.2479 C   0  0  0  0  0  0  0  0  0  0  0  0
    9.5076   48.1019  130.9232 O   0  0  0  0  0  0  0  0  0  0  0  0
    8.6021   48.9322  130.2850 C   0  0  0  0  0  0  0  0  0  0  0  0
    8.0734   49.9775  131.0036 C   0  0  0  0  0  0  0  0  0  0  0  0
    7.1588   50.8657  130.4541 C   0  0  0  0  0  0  0  0  0  0  0  0
    6.7971   50.6534  129.1398 C   0  0  0  0  0  0  0  0  0  0  0  0
    5.8769   51.5431  128.5792 O   0  0  0  0  0  0  0  0  0  0  0  0
    7.3240   49.6036  128.4085 C   0  0  0  0  0  0  0  0  0  0  0  0
    8.2149   48.7604  128.9865 C   0  0  0  0  0  0  0  0  0  0  0  0
    8.8682   47.4181  128.0046 S   0  0  0  0  0  0  0  0  0  0  0  0
    9.9284   46.4491  129.1495 C   0  0  0  0  0  0  0  0  0  0  0  0
    5.5962   51.3980  127.5974 H   0  0  0  0  0  0  0  0  0  0  0  0
    9.3075   45.1787  129.5066 C   0  0  0  0  0  0  0  0  0  0  0  0
    8.2961   45.1360  130.4395 C   0  0  0  0  0  0  0  0  0  0  0  0
    7.6913   43.9290  130.7940 C   0  0  0  0  0  0  0  0  0  0  0  0
    8.1005   42.7487  130.2106 C   0  0  0  0  0  0  0  0  0  0  0  0
    7.4787   41.5409  130.5809 O   0  0  0  0  0  0  0  0  0  0  0  0
    9.1032   42.7727  129.2827 C   0  0  0  0  0  0  0  0  0  0  0  0
    9.6868   43.9757  128.9472 C   0  0  0  0  0  0  0  0  0  0  0  0
    6.6632   41.2902  130.0191 H   0  0  0  0  0  0  0  0  0  0  0  0
   12.5502   45.0656  133.1970 C   0  0  0  0  0  0  0  0  0  0  0  0
   11.9557   46.2702  133.5314 C   0  0  0  0  0  0  0  0  0  0  0  0
   11.2849   46.9597  132.5425 C   0  0  0  0  0  0  0  0  0  0  0  0
   11.1783   46.5092  131.2429 C   0  0  0  0  0  0  0  0  0  0  0  0
   11.7748   45.3126  130.9339 C   0  0  0  0  0  0  0  0  0  0  0  0
   12.4547   44.5999  131.9070 C   0  0  0  0  0  0  0  0  0  0  0  0
   13.2442   44.3323  134.1787 O   0  0  0  0  0  0  0  0  0  0  0  0
   12.5308   43.7781  135.2704 C   0  0  0  0  0  0  0  0  0  0  0  0
   11.1123   42.6304  133.5577 C   0  0  0  0  0  0  0  0  0  0  0  0
   11.1398   43.4795  134.8131 C   0  0  0  0  0  0  0  0  0  0  0  0
   10.3123   44.6200  134.5911 N   0  0  0  0  0  0  0  0  0  0  0  0
    9.0788   44.3650  133.9130 C   0  0  0  0  0  0  0  0  0  0  0  0
    8.2857   45.6637  134.1119 C   0  0  0  0  0  0  0  0  0  0  0  0
    9.0115   46.4067  135.2193 C   0  0  0  0  0  0  0  0  0  0  0  0
    9.8884   45.2870  135.7928 C   0  0  0  0  0  0  0  0  0  0  0  0
 29 30  1  0  0  0
 30 28  1  0  0  0
 28 27  1  0  0  0
 27 21  1  0  0  0
 21 22  2  0  0  0
 22 23  1  0  0  0
 23 24  2  0  0  0
 24 25  1  0  0  0
 25 26  2  0  0  0
 24  1  1  0  0  0
  1  2  1  0  0  0
  2  3  1  0  0  0
  3  4  2  0  0  0
  4  5  1  0  0  0
  5  6  2  0  0  0
  6  7  1  0  0  0
  6  8  1  0  0  0
  8  9  2  0  0  0
  9 10  1  0  0  0
 10 11  1  0  0  0
 11 13  1  0  0  0
 13 14  2  0  0  0
 14 15  1  0  0  0
 15 16  2  0  0  0
 16 17  1  0  0  0
 16 18  1  0  0  0
 18 19  2  0  0  0
 30 31  1  0  0  0
 31 32  1  0  0  0
 32 33  1  0  0  0
 33 34  1  0  0  0
 34 35  1  0  0  0
 26 21  1  0  0  0
 11  1  1  0  0  0
 19 13  1  0  0  0
 35 31  1  0  0  0
  9  3  1  0  0  0
  7 12  1  0  0  0
 17 20  1  0  0  0
M  END
> <minimizedAffinity>
0.56652

> <CNNscore>
0.1641055793

> <CNNaffinity>
7.5435423851

> <CNN_VS>
1.2379374504

> <CNNaffinity_variance>
0.2462708205

$$$$
[H]Oc1c([H])c([H])c([C@@]2([H])Sc3c([H])c(O[H])c([H])c([H])c3O[C@@]2([H])c2c([H])c([H])c(OC([H])([H])[C@@]([H])(N3C([H])([H])C([H])([H])OC([H])([H])C3([H])[H])C([H])([H])[H])c([H])c2[H])c([H])c1[H]


 36 40  0  0  0  0  0  0  0  0999 V2000
    8.8018   45.0929  129.6497 C   0  0  0  0  0  0  0  0  0  0  0  0
    9.8348   44.1884  129.4813 O   0  0  0  0  0  0  0  0  0  0  0  0
   11.1275   44.3911  129.0919 C   0  0  0  0  0  0  0  0  0  0  0  0
   11.9248   43.2642  128.8303 C   0  0  0  0  0  0  0  0  0  0  0  0
   13.2194   43.4127  128.4394 C   0  0  0  0  0  0  0  0  0  0  0  0
   13.7800   44.6483  128.2902 C   0  0  0  0  0  0  0  0  0  0  0  0
   15.0853   44.8204  127.8965 O   0  0  0  0  0  0  0  0  0  0  0  0
   12.9661   45.7638  128.5567 C   0  0  0  0  0  0  0  0  0  0  0  0
   11.6817   45.6324  128.9448 C   0  0  0  0  0  0  0  0  0  0  0  0
   10.6560   47.0283  129.2788 S   0  0  0  0  0  0  0  0  0  0  0  0
    8.9801   46.3857  128.9252 C   0  0  0  0  0  0  0  0  0  0  0  0
   15.7889   44.8641  128.6204 H   0  0  0  0  0  0  0  0  0  0  0  0
    7.9261   47.3680  129.0652 C   0  0  0  0  0  0  0  0  0  0  0  0
    6.6096   46.9721  128.9226 C   0  0  0  0  0  0  0  0  0  0  0  0
    5.5382   47.8260  129.0244 C   0  0  0  0  0  0  0  0  0  0  0  0
    5.7940   49.1536  129.2838 C   0  0  0  0  0  0  0  0  0  0  0  0
    4.7345   50.0725  129.3984 O   0  0  0  0  0  0  0  0  0  0  0  0
    7.1031   49.5569  129.4274 C   0  0  0  0  0  0  0  0  0  0  0  0
    8.1731   48.6947  129.3238 C   0  0  0  0  0  0  0  0  0  0  0  0
    4.3192   50.2284  130.3234 H   0  0  0  0  0  0  0  0  0  0  0  0
    7.7639   45.5077  133.8150 C   0  0  0  0  0  0  0  0  0  0  0  0
    7.9600   46.6066  133.0086 C   0  0  0  0  0  0  0  0  0  0  0  0
    8.2956   46.4806  131.6767 C   0  0  0  0  0  0  0  0  0  0  0  0
    8.4516   45.2207  131.0863 C   0  0  0  0  0  0  0  0  0  0  0  0
    8.2529   44.1335  131.9021 C   0  0  0  0  0  0  0  0  0  0  0  0
    7.9123   44.2661  133.2541 C   0  0  0  0  0  0  0  0  0  0  0  0
    7.4279   45.7107  135.1463 O   0  0  0  0  0  0  0  0  0  0  0  0
    8.3378   45.7873  136.2000 C   0  0  0  0  0  0  0  0  0  0  0  0
    9.1873   47.7916  135.0864 C   0  0  0  0  0  0  0  0  0  0  0  0
    9.5789   46.4856  135.6978 C   0  0  0  0  0  0  0  0  0  0  0  0
   10.3701   45.7167  134.8100 N   0  0  0  0  0  0  0  0  0  0  0  0
   11.2717   46.4540  133.9898 C   0  0  0  0  0  0  0  0  0  0  0  0
   11.7551   45.5093  132.8818 C   0  0  0  0  0  0  0  0  0  0  0  0
   11.1342   44.2679  132.9701 O   0  0  0  0  0  0  0  0  0  0  0  0
   11.4357   43.6754  134.1958 C   0  0  0  0  0  0  0  0  0  0  0  0
   10.9847   44.5551  135.3647 C   0  0  0  0  0  0  0  0  0  0  0  0
 29 30  1  0  0  0
 30 28  1  0  0  0
 28 27  1  0  0  0
 27 21  1  0  0  0
 21 22  2  0  0  0
 22 23  1  0  0  0
 23 24  2  0  0  0
 24 25  1  0  0  0
 25 26  2  0  0  0
 24  1  1  0  0  0
  1  2  1  0  0  0
  2  3  1  0  0  0
  3  4  2  0  0  0
  4  5  1  0  0  0
  5  6  2  0  0  0
  6  7  1  0  0  0
  6  8  1  0  0  0
  8  9  2  0  0  0
  9 10  1  0  0  0
 10 11  1  0  0  0
 11 13  1  0  0  0
 13 14  2  0  0  0
 14 15  1  0  0  0
 15 16  2  0  0  0
 16 17  1  0  0  0
 16 18  1  0  0  0
 18 19  2  0  0  0
 30 31  1  0  0  0
 31 32  1  0  0  0
 32 33  1  0  0  0
 33 34  1  0  0  0
 34 35  1  0  0  0
 35 36  1  0  0  0
 26 21  1  0  0  0
 11  1  1  0  0  0
 19 13  1  0  0  0
 36 31  1  0  0  0
  9  3  1  0  0  0
  7 12  1  0  0  0
 17 20  1  0  0  0
M  END
> <minimizedAffinity>
12.71944

> <CNNscore>
0.3942488730

> <CNNaffinity>
7.4170861244

> <CNN_VS>
2.9241778851

> <CNNaffinity_variance>
0.4984594285

$$$$
[H]Oc1c([H])c([H])c([C@@]2([H])Sc3c([H])c(O[H])c([H])c([H])c3O[C@@]2([H])c2c([H])c([H])c(OC([H])([H])[C@@]([H])(N3C([H])([H])C([H])([H])OC([H])([H])C3([H])[H])C([H])([H])[H])c([H])c2[H])c([H])c1[H]


 36 40  0  0  0  0  0  0  0  0999 V2000
    7.7483   45.0654  129.6109 C   0  0  0  0  0  0  0  0  0  0  0  0
    8.3607   43.8927  129.2068 O   0  0  0  0  0  0  0  0  0  0  0  0
    9.4635   43.6994  128.4257 C   0  0  0  0  0  0  0  0  0  0  0  0
    9.7684   42.3883  128.0230 C   0  0  0  0  0  0  0  0  0  0  0  0
   10.8565   42.1429  127.2442 C   0  0  0  0  0  0  0  0  0  0  0  0
   11.6789   43.1518  126.8330 C   0  0  0  0  0  0  0  0  0  0  0  0
   12.7828   42.9256  126.0464 O   0  0  0  0  0  0  0  0  0  0  0  0
   11.3573   44.4570  127.2463 C   0  0  0  0  0  0  0  0  0  0  0  0
   10.2825   44.7156  128.0179 C   0  0  0  0  0  0  0  0  0  0  0  0
    9.8737   46.3511  128.5379 S   0  0  0  0  0  0  0  0  0  0  0  0
    8.0611   46.2557  128.7664 C   0  0  0  0  0  0  0  0  0  0  0  0
   13.6588   42.7397  126.5144 H   0  0  0  0  0  0  0  0  0  0  0  0
    7.4439   47.5095  129.1437 C   0  0  0  0  0  0  0  0  0  0  0  0
    6.0652   47.6032  129.1704 C   0  0  0  0  0  0  0  0  0  0  0  0
    5.3820   48.7480  129.5023 C   0  0  0  0  0  0  0  0  0  0  0  0
    6.1166   49.8661  129.8270 C   0  0  0  0  0  0  0  0  0  0  0  0
    5.4690   51.0659  130.1749 O   0  0  0  0  0  0  0  0  0  0  0  0
    7.4912   49.7818  129.8028 C   0  0  0  0  0  0  0  0  0  0  0  0
    8.1698   48.6299  129.4687 C   0  0  0  0  0  0  0  0  0  0  0  0
    5.2433   51.2324  131.1617 H   0  0  0  0  0  0  0  0  0  0  0  0
    8.2999   45.6281  133.8510 C   0  0  0  0  0  0  0  0  0  0  0  0
    8.8710   44.5667  133.1848 C   0  0  0  0  0  0  0  0  0  0  0  0
    8.6954   44.3793  131.8296 C   0  0  0  0  0  0  0  0  0  0  0  0
    7.9235   45.2673  131.0708 C   0  0  0  0  0  0  0  0  0  0  0  0
    7.3599   46.3212  131.7479 C   0  0  0  0  0  0  0  0  0  0  0  0
    7.5408   46.5077  133.1241 C   0  0  0  0  0  0  0  0  0  0  0  0
    8.5198   45.7533  135.2156 O   0  0  0  0  0  0  0  0  0  0  0  0
    9.7320   46.1143  135.8025 C   0  0  0  0  0  0  0  0  0  0  0  0
   12.1301   46.2407  135.3418 C   0  0  0  0  0  0  0  0  0  0  0  0
   10.7751   46.1924  134.7135 C   0  0  0  0  0  0  0  0  0  0  0  0
   10.5929   47.2565  133.7971 N   0  0  0  0  0  0  0  0  0  0  0  0
   10.7982   48.5650  134.3214 C   0  0  0  0  0  0  0  0  0  0  0  0
   10.2166   49.5581  133.3067 C   0  0  0  0  0  0  0  0  0  0  0  0
    9.6208   48.8972  132.2378 O   0  0  0  0  0  0  0  0  0  0  0  0
   10.5697   48.1191  131.5757 C   0  0  0  0  0  0  0  0  0  0  0  0
   11.2046   47.0939  132.5188 C   0  0  0  0  0  0  0  0  0  0  0  0
 29 30  1  0  0  0
 30 28  1  0  0  0
 28 27  1  0  0  0
 27 21  1  0  0  0
 21 22  2  0  0  0
 22 23  1  0  0  0
 23 24  2  0  0  0
 24 25  1  0  0  0
 25 26  2  0  0  0
 24  1  1  0  0  0
  1  2  1  0  0  0
  2  3  1  0  0  0
  3  4  2  0  0  0
  4  5  1  0  0  0
  5  6  2  0  0  0
  6  7  1  0  0  0
  6  8  1  0  0  0
  8  9  2  0  0  0
  9 10  1  0  0  0
 10 11  1  0  0  0
 11 13  1  0  0  0
 13 14  2  0  0  0
 14 15  1  0  0  0
 15 16  2  0  0  0
 16 17  1  0  0  0
 16 18  1  0  0  0
 18 19  2  0  0  0
 30 31  1  0  0  0
 31 32  1  0  0  0
 32 33  1  0  0  0
 33 34  1  0  0  0
 34 35  1  0  0  0
 35 36  1  0  0  0
 26 21  1  0  0  0
 11  1  1  0  0  0
 19 13  1  0  0  0
 36 31  1  0  0  0
  9  3  1  0  0  0
  7 12  1  0  0  0
 17 20  1  0  0  0
M  END
> <minimizedAffinity>
11.02040

> <CNNscore>
0.3098761141

> <CNNaffinity>
7.2687683105

> <CNN_VS>
2.2524175644

> <CNNaffinity_variance>
0.5752173066

$$$$
[H]Oc1c([H])c([H])c([C@@]2([H])Sc3c([H])c(O[H])c([H])c([H])c3O[C@@]2([H])c2c([H])c([H])c(OC([H])([H])[C@@]([H])(N3C([H])([H])C([H])([H])OC([H])([H])C3([H])[H])C([H])([H])[H])c([H])c2[H])c([H])c1[H]


 36 40  0  0  0  0  0  0  0  0999 V2000
    7.7348   45.7906  130.1290 C   0  0  0  0  0  0  0  0  0  0  0  0
    8.2015   44.5310  129.7984 O   0  0  0  0  0  0  0  0  0  0  0  0
    9.2080   44.1587  128.9544 C   0  0  0  0  0  0  0  0  0  0  0  0
    9.3575   42.7922  128.6641 C   0  0  0  0  0  0  0  0  0  0  0  0
   10.3449   42.3699  127.8290 C   0  0  0  0  0  0  0  0  0  0  0  0
   11.2135   43.2507  127.2521 C   0  0  0  0  0  0  0  0  0  0  0  0
   12.2176   42.8452  126.4061 O   0  0  0  0  0  0  0  0  0  0  0  0
   11.0479   44.6141  127.5549 C   0  0  0  0  0  0  0  0  0  0  0  0
   10.0743   45.0475  128.3805 C   0  0  0  0  0  0  0  0  0  0  0  0
    9.8611   46.7565  128.7625 S   0  0  0  0  0  0  0  0  0  0  0  0
    8.0752   46.8602  129.1451 C   0  0  0  0  0  0  0  0  0  0  0  0
   13.1121   42.6195  126.8182 H   0  0  0  0  0  0  0  0  0  0  0  0
    7.6085   48.1981  129.4413 C   0  0  0  0  0  0  0  0  0  0  0  0
    8.5250   49.1718  129.7910 C   0  0  0  0  0  0  0  0  0  0  0  0
    8.1854   50.4662  130.1021 C   0  0  0  0  0  0  0  0  0  0  0  0
    6.8531   50.8107  130.0622 C   0  0  0  0  0  0  0  0  0  0  0  0
    6.4485   52.1225  130.3713 O   0  0  0  0  0  0  0  0  0  0  0  0
    5.9329   49.8465  129.7148 C   0  0  0  0  0  0  0  0  0  0  0  0
    6.2808   48.5498  129.4041 C   0  0  0  0  0  0  0  0  0  0  0  0
    6.3932   52.8099  129.6118 H   0  0  0  0  0  0  0  0  0  0  0  0
    8.6720   46.6728  134.2451 C   0  0  0  0  0  0  0  0  0  0  0  0
    7.9635   45.5455  133.8932 C   0  0  0  0  0  0  0  0  0  0  0  0
    7.6576   45.2596  132.5790 C   0  0  0  0  0  0  0  0  0  0  0  0
    8.0580   46.1105  131.5418 C   0  0  0  0  0  0  0  0  0  0  0  0
    8.7638   47.2310  131.9070 C   0  0  0  0  0  0  0  0  0  0  0  0
    9.0723   47.5173  133.2428 C   0  0  0  0  0  0  0  0  0  0  0  0
    8.9435   46.8958  135.5878 O   0  0  0  0  0  0  0  0  0  0  0  0
    9.9971   46.3225  136.2987 C   0  0  0  0  0  0  0  0  0  0  0  0
   10.9540   44.1320  136.8132 C   0  0  0  0  0  0  0  0  0  0  0  0
   10.1923   44.9134  135.7924 C   0  0  0  0  0  0  0  0  0  0  0  0
   10.7987   44.8238  134.5159 N   0  0  0  0  0  0  0  0  0  0  0  0
   12.0432   45.5023  134.3743 C   0  0  0  0  0  0  0  0  0  0  0  0
   12.3458   45.5894  132.8728 C   0  0  0  0  0  0  0  0  0  0  0  0
   11.3097   45.0513  132.1168 O   0  0  0  0  0  0  0  0  0  0  0  0
   11.1397   43.7055  132.4392 C   0  0  0  0  0  0  0  0  0  0  0  0
   10.8316   43.5247  133.9279 C   0  0  0  0  0  0  0  0  0  0  0  0
 29 30  1  0  0  0
 30 28  1  0  0  0
 28 27  1  0  0  0
 27 21  1  0  0  0
 21 22  2  0  0  0
 22 23  1  0  0  0
 23 24  2  0  0  0
 24 25  1  0  0  0
 25 26  2  0  0  0
 24  1  1  0  0  0
  1  2  1  0  0  0
  2  3  1  0  0  0
  3  4  2  0  0  0
  4  5  1  0  0  0
  5  6  2  0  0  0
  6  7  1  0  0  0
  6  8  1  0  0  0
  8  9  2  0  0  0
  9 10  1  0  0  0
 10 11  1  0  0  0
 11 13  1  0  0  0
 13 14  2  0  0  0
 14 15  1  0  0  0
 15 16  2  0  0  0
 16 17  1  0  0  0
 16 18  1  0  0  0
 18 19  2  0  0  0
 30 31  1  0  0  0
 31 32  1  0  0  0
 32 33  1  0  0  0
 33 34  1  0  0  0
 34 35  1  0  0  0
 35 36  1  0  0  0
 26 21  1  0  0  0
 11  1  1  0  0  0
 19 13  1  0  0  0
 36 31  1  0  0  0
  9  3  1  0  0  0
  7 12  1  0  0  0
 17 20  1  0  0  0
M  END
> <minimizedAffinity>
4.30664

> <CNNscore>
0.2902383804

> <CNNaffinity>
7.3565893173

> <CNN_VS>
2.1351644993

> <CNNaffinity_variance>
0.3018030822

$$$$
[H]Oc1c([H])c([H])c([C@@]2([H])Sc3c([H])c(O[H])c([H])c([H])c3O[C@@]2([H])c2c([H])c([H])c(OC([H])([H])[C@@]([H])(N3C([H])([H])C([H])([H])OC([H])([H])C3([H])[H])C([H])([H])[H])c([H])c2[H])c([H])c1[H]


 36 40  0  0  0  0  0  0  0  0999 V2000
   10.6801   45.5284  131.6639 C   0  0  0  0  0  0  0  0  0  0  0  0
    9.8689   44.6626  130.9527 O   0  0  0  0  0  0  0  0  0  0  0  0
    9.0041   43.7032  131.3950 C   0  0  0  0  0  0  0  0  0  0  0  0
    8.4322   42.8389  130.4464 C   0  0  0  0  0  0  0  0  0  0  0  0
    7.5645   41.8663  130.8361 C   0  0  0  0  0  0  0  0  0  0  0  0
    7.2247   41.7002  132.1477 C   0  0  0  0  0  0  0  0  0  0  0  0
    6.3505   40.7245  132.5625 O   0  0  0  0  0  0  0  0  0  0  0  0
    7.8074   42.5750  133.0821 C   0  0  0  0  0  0  0  0  0  0  0  0
    8.6687   43.5434  132.7110 C   0  0  0  0  0  0  0  0  0  0  0  0
    9.4036   44.6424  133.8791 S   0  0  0  0  0  0  0  0  0  0  0  0
   10.9756   45.0995  133.0627 C   0  0  0  0  0  0  0  0  0  0  0  0
    5.3690   40.9621  132.5979 H   0  0  0  0  0  0  0  0  0  0  0  0
   11.8229   45.9686  133.8513 C   0  0  0  0  0  0  0  0  0  0  0  0
   11.2788   47.0995  134.4304 C   0  0  0  0  0  0  0  0  0  0  0  0
   11.9976   47.9941  135.1859 C   0  0  0  0  0  0  0  0  0  0  0  0
   13.3386   47.7469  135.3755 C   0  0  0  0  0  0  0  0  0  0  0  0
   14.1230   48.6297  136.1405 O   0  0  0  0  0  0  0  0  0  0  0  0
   13.8892   46.6222  134.8018 C   0  0  0  0  0  0  0  0  0  0  0  0
   13.1620   45.7292  134.0450 C   0  0  0  0  0  0  0  0  0  0  0  0
   14.2039   48.4640  137.1497 H   0  0  0  0  0  0  0  0  0  0  0  0
    9.2590   49.5839  131.2987 C   0  0  0  0  0  0  0  0  0  0  0  0
    8.5744   48.6443  132.0371 C   0  0  0  0  0  0  0  0  0  0  0  0
    9.0218   47.3449  132.1548 C   0  0  0  0  0  0  0  0  0  0  0  0
   10.1989   46.9254  131.5235 C   0  0  0  0  0  0  0  0  0  0  0  0
   10.8716   47.8726  130.7905 C   0  0  0  0  0  0  0  0  0  0  0  0
   10.4136   49.1910  130.6737 C   0  0  0  0  0  0  0  0  0  0  0  0
    8.7492   50.8727  131.2249 O   0  0  0  0  0  0  0  0  0  0  0  0
    7.5320   51.2210  130.6409 C   0  0  0  0  0  0  0  0  0  0  0  0
    6.6587   51.4597  128.3695 C   0  0  0  0  0  0  0  0  0  0  0  0
    7.4709   50.5880  129.2713 C   0  0  0  0  0  0  0  0  0  0  0  0
    7.0006   49.2523  129.2592 N   0  0  0  0  0  0  0  0  0  0  0  0
    5.5923   49.0948  129.1143 C   0  0  0  0  0  0  0  0  0  0  0  0
    5.2570   47.6429  129.4795 C   0  0  0  0  0  0  0  0  0  0  0  0
    6.3904   46.9518  129.8943 O   0  0  0  0  0  0  0  0  0  0  0  0
    7.3304   46.9253  128.8647 C   0  0  0  0  0  0  0  0  0  0  0  0
    7.7251   48.3408  128.4353 C   0  0  0  0  0  0  0  0  0  0  0  0
 29 30  1  0  0  0
 30 28  1  0  0  0
 28 27  1  0  0  0
 27 21  1  0  0  0
 21 22  2  0  0  0
 22 23  1  0  0  0
 23 24  2  0  0  0
 24 25  1  0  0  0
 25 26  2  0  0  0
 24  1  1  0  0  0
  1  2  1  0  0  0
  2  3  1  0  0  0
  3  4  2  0  0  0
  4  5  1  0  0  0
  5  6  2  0  0  0
  6  7  1  0  0  0
  6  8  1  0  0  0
  8  9  2  0  0  0
  9 10  1  0  0  0
 10 11  1  0  0  0
 11 13  1  0  0  0
 13 14  2  0  0  0
 14 15  1  0  0  0
 15 16  2  0  0  0
 16 17  1  0  0  0
 16 18  1  0  0  0
 18 19  2  0  0  0
 30 31  1  0  0  0
 31 32  1  0  0  0
 32 33  1  0  0  0
 33 34  1  0  0  0
 34 35  1  0  0  0
 35 36  1  0  0  0
 26 21  1  0  0  0
 11  1  1  0  0  0
 19 13  1  0  0  0
 36 31  1  0  0  0
  9  3  1  0  0  0
  7 12  1  0  0  0
 17 20  1  0  0  0
M  END
> <minimizedAffinity>
10.84463

> <CNNscore>
0.2891958058

> <CNNaffinity>
7.0848083496

> <CNN_VS>
2.0488967896

> <CNNaffinity_variance>
0.4524059296

$$$$
[H]Oc1c([H])c([H])c([C@@]2([H])Sc3c([H])c(O[H])c([H])c([H])c3O[C@@]2([H])c2c([H])c([H])c(OC([H])([H])[C@@]([H])(N3C([H])([H])C([H])([H])OC([H])([H])C3([H])[H])C([H])([H])[H])c([H])c2[H])c([H])c1[H]


 36 40  0  0  0  0  0  0  0  0999 V2000
    7.6531   45.7434  130.9013 C   0  0  0  0  0  0  0  0  0  0  0  0
    7.9417   44.3913  130.8557 O   0  0  0  0  0  0  0  0  0  0  0  0
    8.5855   43.6605  129.8989 C   0  0  0  0  0  0  0  0  0  0  0  0
    8.5872   42.2611  130.0239 C   0  0  0  0  0  0  0  0  0  0  0  0
    9.2147   41.4880  129.0969 C   0  0  0  0  0  0  0  0  0  0  0  0
    9.8563   42.0408  128.0264 C   0  0  0  0  0  0  0  0  0  0  0  0
   10.4961   41.2782  127.0791 O   0  0  0  0  0  0  0  0  0  0  0  0
    9.8436   43.4429  127.9187 C   0  0  0  0  0  0  0  0  0  0  0  0
    9.2261   44.2220  128.8293 C   0  0  0  0  0  0  0  0  0  0  0  0
    9.2058   45.9812  128.6981 S   0  0  0  0  0  0  0  0  0  0  0  0
    7.6642   46.4290  129.5755 C   0  0  0  0  0  0  0  0  0  0  0  0
   11.4710   41.0629  127.2342 H   0  0  0  0  0  0  0  0  0  0  0  0
    7.3660   47.8454  129.5658 C   0  0  0  0  0  0  0  0  0  0  0  0
    8.4053   48.7548  129.5106 C   0  0  0  0  0  0  0  0  0  0  0  0
    8.2308   50.1175  129.5088 C   0  0  0  0  0  0  0  0  0  0  0  0
    6.9438   50.6029  129.5652 C   0  0  0  0  0  0  0  0  0  0  0  0
    6.7066   51.9899  129.5661 O   0  0  0  0  0  0  0  0  0  0  0  0
    5.9019   49.7037  129.6205 C   0  0  0  0  0  0  0  0  0  0  0  0
    6.0845   48.3379  129.6222 C   0  0  0  0  0  0  0  0  0  0  0  0
    6.5819   52.4661  128.6660 H   0  0  0  0  0  0  0  0  0  0  0  0
    9.9799   47.7185  133.9484 C   0  0  0  0  0  0  0  0  0  0  0  0
   10.1746   47.9802  132.6104 C   0  0  0  0  0  0  0  0  0  0  0  0
    9.4362   47.3492  131.6310 C   0  0  0  0  0  0  0  0  0  0  0  0
    8.4515   46.4100  131.9601 C   0  0  0  0  0  0  0  0  0  0  0  0
    8.2678   46.1587  133.2981 C   0  0  0  0  0  0  0  0  0  0  0  0
    9.0200   46.8018  134.2892 C   0  0  0  0  0  0  0  0  0  0  0  0
   10.7601   48.3914  134.8784 O   0  0  0  0  0  0  0  0  0  0  0  0
   12.1534   48.4435  134.8683 C   0  0  0  0  0  0  0  0  0  0  0  0
   14.1508   47.1220  135.3609 C   0  0  0  0  0  0  0  0  0  0  0  0
   12.6764   47.0511  135.1288 C   0  0  0  0  0  0  0  0  0  0  0  0
   12.3566   46.1036  134.1262 N   0  0  0  0  0  0  0  0  0  0  0  0
   13.1963   46.1149  132.9754 C   0  0  0  0  0  0  0  0  0  0  0  0
   12.4888   45.2962  131.8879 C   0  0  0  0  0  0  0  0  0  0  0  0
   11.2424   44.8543  132.3190 O   0  0  0  0  0  0  0  0  0  0  0  0
   11.3928   44.0357  133.4377 C   0  0  0  0  0  0  0  0  0  0  0  0
   12.0936   44.7769  134.5792 C   0  0  0  0  0  0  0  0  0  0  0  0
 29 30  1  0  0  0
 30 28  1  0  0  0
 28 27  1  0  0  0
 27 21  1  0  0  0
 21 22  2  0  0  0
 22 23  1  0  0  0
 23 24  2  0  0  0
 24 25  1  0  0  0
 25 26  2  0  0  0
 24  1  1  0  0  0
  1  2  1  0  0  0
  2  3  1  0  0  0
  3  4  2  0  0  0
  4  5  1  0  0  0
  5  6  2  0  0  0
  6  7  1  0  0  0
  6  8  1  0  0  0
  8  9  2  0  0  0
  9 10  1  0  0  0
 10 11  1  0  0  0
 11 13  1  0  0  0
 13 14  2  0  0  0
 14 15  1  0  0  0
 15 16  2  0  0  0
 16 17  1  0  0  0
 16 18  1  0  0  0
 18 19  2  0  0  0
 30 31  1  0  0  0
 31 32  1  0  0  0
 32 33  1  0  0  0
 33 34  1  0  0  0
 34 35  1  0  0  0
 35 36  1  0  0  0
 26 21  1  0  0  0
 11  1  1  0  0  0
 19 13  1  0  0  0
 36 31  1  0  0  0
  9  3  1  0  0  0
  7 12  1  0  0  0
 17 20  1  0  0  0
M  END
> <minimizedAffinity>
7.97558

> <CNNscore>
0.2773780823

> <CNNaffinity>
7.3506455421

> <CNN_VS>
2.0389080048

> <CNNaffinity_variance>
0.3304716945

$$$$
[H]Oc1c([H])c([H])c([C@@]2([H])Sc3c([H])c(O[H])c([H])c([H])c3O[C@@]2([H])c2c([H])c([H])c(OC([H])([H])[C@@]([H])(N3C([H])([H])C([H])([H])OC([H])([H])C3([H])[H])C([H])([H])[H])c([H])c2[H])c([H])c1[H]


 36 40  0  0  0  0  0  0  0  0999 V2000
   11.1904   45.8338  131.4247 C   0  0  0  0  0  0  0  0  0  0  0  0
   11.4145   45.5197  130.0963 O   0  0  0  0  0  0  0  0  0  0  0  0
   10.9473   44.4783  129.3471 C   0  0  0  0  0  0  0  0  0  0  0  0
   11.4779   44.2990  128.0585 C   0  0  0  0  0  0  0  0  0  0  0  0
   11.0457   43.2764  127.2723 C   0  0  0  0  0  0  0  0  0  0  0  0
   10.0926   42.4003  127.7052 C   0  0  0  0  0  0  0  0  0  0  0  0
    9.6422   41.3610  126.9272 O   0  0  0  0  0  0  0  0  0  0  0  0
    9.5737   42.5962  128.9975 C   0  0  0  0  0  0  0  0  0  0  0  0
    9.9921   43.6050  129.7880 C   0  0  0  0  0  0  0  0  0  0  0  0
    9.3457   43.8543  131.4104 S   0  0  0  0  0  0  0  0  0  0  0  0
   10.7288   44.6911  132.2668 C   0  0  0  0  0  0  0  0  0  0  0  0
    8.8495   41.5378  126.3260 H   0  0  0  0  0  0  0  0  0  0  0  0
   10.4816   44.9644  133.6666 C   0  0  0  0  0  0  0  0  0  0  0  0
   11.1131   44.1969  134.6270 C   0  0  0  0  0  0  0  0  0  0  0  0
   10.9380   44.3663  135.9792 C   0  0  0  0  0  0  0  0  0  0  0  0
   10.0826   45.3599  136.3991 C   0  0  0  0  0  0  0  0  0  0  0  0
    9.8659   45.5779  137.7722 O   0  0  0  0  0  0  0  0  0  0  0  0
    9.4490   46.1296  135.4487 C   0  0  0  0  0  0  0  0  0  0  0  0
    9.6293   45.9539  134.0939 C   0  0  0  0  0  0  0  0  0  0  0  0
   10.4766   46.2380  138.2659 H   0  0  0  0  0  0  0  0  0  0  0  0
    8.8389   49.4376  131.7125 C   0  0  0  0  0  0  0  0  0  0  0  0
   10.1209   49.4521  131.2097 C   0  0  0  0  0  0  0  0  0  0  0  0
   10.8793   48.3037  131.1184 C   0  0  0  0  0  0  0  0  0  0  0  0
   10.3725   47.0673  131.5364 C   0  0  0  0  0  0  0  0  0  0  0  0
    9.0928   47.0673  132.0356 C   0  0  0  0  0  0  0  0  0  0  0  0
    8.3262   48.2360  132.1265 C   0  0  0  0  0  0  0  0  0  0  0  0
    8.1348   50.6321  131.7744 O   0  0  0  0  0  0  0  0  0  0  0  0
    7.1152   51.0078  130.9007 C   0  0  0  0  0  0  0  0  0  0  0  0
    6.8479   51.2998  128.4878 C   0  0  0  0  0  0  0  0  0  0  0  0
    7.4144   50.4104  129.5465 C   0  0  0  0  0  0  0  0  0  0  0  0
    6.9806   49.0724  129.3831 N   0  0  0  0  0  0  0  0  0  0  0  0
    5.6006   48.9041  129.0723 C   0  0  0  0  0  0  0  0  0  0  0  0
    5.2627   47.4234  129.2892 C   0  0  0  0  0  0  0  0  0  0  0  0
    6.3606   46.7206  129.7739 O   0  0  0  0  0  0  0  0  0  0  0  0
    7.4074   46.7879  128.8553 C   0  0  0  0  0  0  0  0  0  0  0  0
    7.8122   48.2382  128.5786 C   0  0  0  0  0  0  0  0  0  0  0  0
 29 30  1  0  0  0
 30 28  1  0  0  0
 28 27  1  0  0  0
 27 21  1  0  0  0
 21 22  2  0  0  0
 22 23  1  0  0  0
 23 24  2  0  0  0
 24 25  1  0  0  0
 25 26  2  0  0  0
 24  1  1  0  0  0
  1  2  1  0  0  0
  2  3  1  0  0  0
  3  4  2  0  0  0
  4  5  1  0  0  0
  5  6  2  0  0  0
  6  7  1  0  0  0
  6  8  1  0  0  0
  8  9  2  0  0  0
  9 10  1  0  0  0
 10 11  1  0  0  0
 11 13  1  0  0  0
 13 14  2  0  0  0
 14 15  1  0  0  0
 15 16  2  0  0  0
 16 17  1  0  0  0
 16 18  1  0  0  0
 18 19  2  0  0  0
 30 31  1  0  0  0
 31 32  1  0  0  0
 32 33  1  0  0  0
 33 34  1  0  0  0
 34 35  1  0  0  0
 35 36  1  0  0  0
 26 21  1  0  0  0
 11  1  1  0  0  0
 19 13  1  0  0  0
 36 31  1  0  0  0
  9  3  1  0  0  0
  7 12  1  0  0  0
 17 20  1  0  0  0
M  END
> <minimizedAffinity>
4.92820

> <CNNscore>
0.2610016465

> <CNNaffinity>
7.3800950050

> <CNN_VS>
1.9262169600

> <CNNaffinity_variance>
0.3822631836

$$$$
[H]Oc1c([H])c([H])c([C@@]2([H])Sc3c([H])c(O[H])c([H])c([H])c3O[C@@]2([H])c2c([H])c([H])c(OC([H])([H])[C@@]([H])(N3C([H])([H])C([H])([H])OC([H])([H])C3([H])[H])C([H])([H])[H])c([H])c2[H])c([H])c1[H]


 36 40  0  0  0  0  0  0  0  0999 V2000
   11.6812   44.6512  132.0600 C   0  0  0  0  0  0  0  0  0  0  0  0
   12.8973   44.9994  131.5003 O   0  0  0  0  0  0  0  0  0  0  0  0
   13.4657   44.6141  130.3203 C   0  0  0  0  0  0  0  0  0  0  0  0
   14.7992   44.9830  130.0759 C   0  0  0  0  0  0  0  0  0  0  0  0
   15.4112   44.6236  128.9153 C   0  0  0  0  0  0  0  0  0  0  0  0
   14.7566   43.9004  127.9605 C   0  0  0  0  0  0  0  0  0  0  0  0
   15.3561   43.5273  126.7816 O   0  0  0  0  0  0  0  0  0  0  0  0
   13.4227   43.5407  128.2233 C   0  0  0  0  0  0  0  0  0  0  0  0
   12.8030   43.8896  129.3686 C   0  0  0  0  0  0  0  0  0  0  0  0
   11.1305   43.4397  129.7041 S   0  0  0  0  0  0  0  0  0  0  0  0
   11.0907   43.3859  131.5322 C   0  0  0  0  0  0  0  0  0  0  0  0
   15.2790   44.1607  125.9981 H   0  0  0  0  0  0  0  0  0  0  0  0
    9.8186   42.9734  132.0862 C   0  0  0  0  0  0  0  0  0  0  0  0
    9.7564   42.5641  133.4049 C   0  0  0  0  0  0  0  0  0  0  0  0
    8.6034   42.1429  134.0220 C   0  0  0  0  0  0  0  0  0  0  0  0
    7.4434   42.1287  133.2808 C   0  0  0  0  0  0  0  0  0  0  0  0
    6.2335   41.7067  133.8621 O   0  0  0  0  0  0  0  0  0  0  0  0
    7.4963   42.5349  131.9657 C   0  0  0  0  0  0  0  0  0  0  0  0
    8.6566   42.9561  131.3532 C   0  0  0  0  0  0  0  0  0  0  0  0
    5.6391   42.4069  134.3191 H   0  0  0  0  0  0  0  0  0  0  0  0
    9.0106   48.0375  132.0475 C   0  0  0  0  0  0  0  0  0  0  0  0
    9.8919   47.8112  131.0138 C   0  0  0  0  0  0  0  0  0  0  0  0
   10.7510   46.7321  131.0136 C   0  0  0  0  0  0  0  0  0  0  0  0
   10.7618   45.8163  132.0725 C   0  0  0  0  0  0  0  0  0  0  0  0
    9.8778   46.0540  133.0967 C   0  0  0  0  0  0  0  0  0  0  0  0
    9.0072   47.1511  133.0927 C   0  0  0  0  0  0  0  0  0  0  0  0
    8.1756   49.1441  131.9798 O   0  0  0  0  0  0  0  0  0  0  0  0
    8.3403   50.2206  131.1091 C   0  0  0  0  0  0  0  0  0  0  0  0
    6.1214   50.9412  130.3769 C   0  0  0  0  0  0  0  0  0  0  0  0
    7.3045   50.1025  130.0167 C   0  0  0  0  0  0  0  0  0  0  0  0
    6.9212   48.7747  129.7081 N   0  0  0  0  0  0  0  0  0  0  0  0
    5.5461   48.5878  129.3864 C   0  0  0  0  0  0  0  0  0  0  0  0
    5.2673   47.0801  129.4396 C   0  0  0  0  0  0  0  0  0  0  0  0
    6.3955   46.3716  129.8391 O   0  0  0  0  0  0  0  0  0  0  0  0
    7.4311   46.5809  128.9292 C   0  0  0  0  0  0  0  0  0  0  0  0
    7.7774   48.0676  128.8129 C   0  0  0  0  0  0  0  0  0  0  0  0
 29 30  1  0  0  0
 30 28  1  0  0  0
 28 27  1  0  0  0
 27 21  1  0  0  0
 21 22  2  0  0  0
 22 23  1  0  0  0
 23 24  2  0  0  0
 24 25  1  0  0  0
 25 26  2  0  0  0
 24  1  1  0  0  0
  1  2  1  0  0  0
  2  3  1  0  0  0
  3  4  2  0  0  0
  4  5  1  0  0  0
  5  6  2  0  0  0
  6  7  1  0  0  0
  6  8  1  0  0  0
  8  9  2  0  0  0
  9 10  1  0  0  0
 10 11  1  0  0  0
 11 13  1  0  0  0
 13 14  2  0  0  0
 14 15  1  0  0  0
 15 16  2  0  0  0
 16 17  1  0  0  0
 16 18  1  0  0  0
 18 19  2  0  0  0
 30 31  1  0  0  0
 31 32  1  0  0  0
 32 33  1  0  0  0
 33 34  1  0  0  0
 34 35  1  0  0  0
 35 36  1  0  0  0
 26 21  1  0  0  0
 11  1  1  0  0  0
 19 13  1  0  0  0
 36 31  1  0  0  0
  9  3  1  0  0  0
  7 12  1  0  0  0
 17 20  1  0  0  0
M  END
> <minimizedAffinity>
12.98157

> <CNNscore>
0.2374600023

> <CNNaffinity>
7.1957597733

> <CNN_VS>
1.7087051868

> <CNNaffinity_variance>
0.3365010321

$$$$
[H]Oc1c([H])c([H])c([C@@]2([H])Sc3c([H])c(O[H])c([H])c([H])c3O[C@@]2([H])c2c([H])c([H])c(OC([H])([H])[C@@]([H])(N3C([H])([H])C([H])([H])OC([H])([H])C3([H])[H])C([H])([H])[H])c([H])c2[H])c([H])c1[H]


 36 40  0  0  0  0  0  0  0  0999 V2000
   10.1865   44.8250  132.1804 C   0  0  0  0  0  0  0  0  0  0  0  0
   11.3631   45.4189  131.7603 O   0  0  0  0  0  0  0  0  0  0  0  0
   12.3661   44.9268  130.9756 C   0  0  0  0  0  0  0  0  0  0  0  0
   13.5413   45.6865  130.8491 C   0  0  0  0  0  0  0  0  0  0  0  0
   14.5700   45.2401  130.0789 C   0  0  0  0  0  0  0  0  0  0  0  0
   14.4947   44.0521  129.4108 C   0  0  0  0  0  0  0  0  0  0  0  0
   15.5219   43.5831  128.6278 O   0  0  0  0  0  0  0  0  0  0  0  0
   13.3106   43.3062  129.5499 C   0  0  0  0  0  0  0  0  0  0  0  0
   12.2830   43.7356  130.3095 C   0  0  0  0  0  0  0  0  0  0  0  0
   10.7961   42.8033  130.4885 S   0  0  0  0  0  0  0  0  0  0  0  0
   10.1880   43.3332  132.1305 C   0  0  0  0  0  0  0  0  0  0  0  0
   15.5218   43.8452  127.6519 H   0  0  0  0  0  0  0  0  0  0  0  0
    8.9813   42.6602  132.5619 C   0  0  0  0  0  0  0  0  0  0  0  0
    8.8522   42.2868  133.8864 C   0  0  0  0  0  0  0  0  0  0  0  0
    7.7550   41.6341  134.3942 C   0  0  0  0  0  0  0  0  0  0  0  0
    6.7252   41.3358  133.5307 C   0  0  0  0  0  0  0  0  0  0  0  0
    5.5774   40.6685  133.9967 O   0  0  0  0  0  0  0  0  0  0  0  0
    6.8455   41.7043  132.2089 C   0  0  0  0  0  0  0  0  0  0  0  0
    7.9492   42.3587  131.7064 C   0  0  0  0  0  0  0  0  0  0  0  0
    4.7921   41.2293  134.3448 H   0  0  0  0  0  0  0  0  0  0  0  0
    6.7944   46.6809  130.2701 C   0  0  0  0  0  0  0  0  0  0  0  0
    7.7849   46.0642  129.5386 C   0  0  0  0  0  0  0  0  0  0  0  0
    8.8740   45.4720  130.1434 C   0  0  0  0  0  0  0  0  0  0  0  0
    9.0176   45.4741  131.5360 C   0  0  0  0  0  0  0  0  0  0  0  0
    8.0225   46.0925  132.2532 C   0  0  0  0  0  0  0  0  0  0  0  0
    6.9183   46.6925  131.6348 C   0  0  0  0  0  0  0  0  0  0  0  0
    5.7276   47.2558  129.5936 O   0  0  0  0  0  0  0  0  0  0  0  0
    5.4233   48.6164  129.5851 C   0  0  0  0  0  0  0  0  0  0  0  0
    6.9281   48.6407  127.6580 C   0  0  0  0  0  0  0  0  0  0  0  0
    6.5664   49.3483  128.9234 C   0  0  0  0  0  0  0  0  0  0  0  0
    7.7004   49.5409  129.7493 N   0  0  0  0  0  0  0  0  0  0  0  0
    7.4351   49.6661  131.1434 C   0  0  0  0  0  0  0  0  0  0  0  0
    8.7079   50.2147  131.8012 C   0  0  0  0  0  0  0  0  0  0  0  0
    9.6918   50.4796  130.8546 O   0  0  0  0  0  0  0  0  0  0  0  0
   10.0314   49.3045  130.1852 C   0  0  0  0  0  0  0  0  0  0  0  0
    8.8132   48.6857  129.4947 C   0  0  0  0  0  0  0  0  0  0  0  0
 29 30  1  0  0  0
 30 28  1  0  0  0
 28 27  1  0  0  0
 27 21  1  0  0  0
 21 22  2  0  0  0
 22 23  1  0  0  0
 23 24  2  0  0  0
 24 25  1  0  0  0
 25 26  2  0  0  0
 24  1  1  0  0  0
  1  2  1  0  0  0
  2  3  1  0  0  0
  3  4  2  0  0  0
  4  5  1  0  0  0
  5  6  2  0  0  0
  6  7  1  0  0  0
  6  8  1  0  0  0
  8  9  2  0  0  0
  9 10  1  0  0  0
 10 11  1  0  0  0
 11 13  1  0  0  0
 13 14  2  0  0  0
 14 15  1  0  0  0
 15 16  2  0  0  0
 16 17  1  0  0  0
 16 18  1  0  0  0
 18 19  2  0  0  0
 30 31  1  0  0  0
 31 32  1  0  0  0
 32 33  1  0  0  0
 33 34  1  0  0  0
 34 35  1  0  0  0
 35 36  1  0  0  0
 26 21  1  0  0  0
 11  1  1  0  0  0
 19 13  1  0  0  0
 36 31  1  0  0  0
  9  3  1  0  0  0
  7 12  1  0  0  0
 17 20  1  0  0  0
M  END
> <minimizedAffinity>
13.89045

> <CNNscore>
0.2150908858

> <CNNaffinity>
7.0239248276

> <CNN_VS>
1.5107822418

> <CNNaffinity_variance>
0.5865349770

$$$$
[H]Oc1c([H])c([H])c([C@@]2([H])Sc3c([H])c(O[H])c([H])c([H])c3O[C@@]2([H])c2c([H])c([H])c(OC([H])([H])[C@@]([H])(N3C([H])([H])C([H])([H])OC([H])([H])C3([H])[H])C([H])([H])[H])c([H])c2[H])c([H])c1[H]


 36 40  0  0  0  0  0  0  0  0999 V2000
    9.4389   44.6772  132.6745 C   0  0  0  0  0  0  0  0  0  0  0  0
    9.4485   44.5334  134.0503 O   0  0  0  0  0  0  0  0  0  0  0  0
   10.4338   44.0836  134.8815 C   0  0  0  0  0  0  0  0  0  0  0  0
   10.1143   43.8708  136.2330 C   0  0  0  0  0  0  0  0  0  0  0  0
   11.0606   43.4233  137.1019 C   0  0  0  0  0  0  0  0  0  0  0  0
   12.3380   43.1692  136.6932 C   0  0  0  0  0  0  0  0  0  0  0  0
   13.3087   42.7169  137.5543 O   0  0  0  0  0  0  0  0  0  0  0  0
   12.6384   43.3883  135.3369 C   0  0  0  0  0  0  0  0  0  0  0  0
   11.7113   43.8314  134.4642 C   0  0  0  0  0  0  0  0  0  0  0  0
   12.0824   44.1064  132.7616 S   0  0  0  0  0  0  0  0  0  0  0  0
   10.4593   43.8597  131.9545 C   0  0  0  0  0  0  0  0  0  0  0  0
   13.8665   43.4097  138.0338 H   0  0  0  0  0  0  0  0  0  0  0  0
   10.4911   43.9706  130.5116 C   0  0  0  0  0  0  0  0  0  0  0  0
    9.3907   43.5688  129.7783 C   0  0  0  0  0  0  0  0  0  0  0  0
    9.3238   43.6215  128.4070 C   0  0  0  0  0  0  0  0  0  0  0  0
   10.4190   44.1033  127.7261 C   0  0  0  0  0  0  0  0  0  0  0  0
   10.4055   44.1795  126.3211 O   0  0  0  0  0  0  0  0  0  0  0  0
   11.5202   44.5058  128.4490 C   0  0  0  0  0  0  0  0  0  0  0  0
   11.5802   44.4500  129.8246 C   0  0  0  0  0  0  0  0  0  0  0  0
   10.0638   45.0407  125.8805 H   0  0  0  0  0  0  0  0  0  0  0  0
    9.3237   48.8607  131.6332 C   0  0  0  0  0  0  0  0  0  0  0  0
    8.3586   48.2906  132.4331 C   0  0  0  0  0  0  0  0  0  0  0  0
    8.3878   46.9525  132.7668 C   0  0  0  0  0  0  0  0  0  0  0  0
    9.4077   46.1135  132.3021 C   0  0  0  0  0  0  0  0  0  0  0  0
   10.3637   46.6952  131.5053 C   0  0  0  0  0  0  0  0  0  0  0  0
   10.3300   48.0544  131.1690 C   0  0  0  0  0  0  0  0  0  0  0  0
    9.2300   50.2138  131.3389 O   0  0  0  0  0  0  0  0  0  0  0  0
    8.0837   50.8549  130.8709 C   0  0  0  0  0  0  0  0  0  0  0  0
    6.9464   51.3532  128.7644 C   0  0  0  0  0  0  0  0  0  0  0  0
    7.8059   50.3569  129.4727 C   0  0  0  0  0  0  0  0  0  0  0  0
    7.2484   49.0568  129.4094 N   0  0  0  0  0  0  0  0  0  0  0  0
    5.8616   48.9944  129.0896 C   0  0  0  0  0  0  0  0  0  0  0  0
    5.3824   47.5745  129.4184 C   0  0  0  0  0  0  0  0  0  0  0  0
    6.4039   46.8132  129.9763 O   0  0  0  0  0  0  0  0  0  0  0  0
    7.4609   46.7070  129.0731 C   0  0  0  0  0  0  0  0  0  0  0  0
    8.0044   48.0855  128.6884 C   0  0  0  0  0  0  0  0  0  0  0  0
 29 30  1  0  0  0
 30 28  1  0  0  0
 28 27  1  0  0  0
 27 21  1  0  0  0
 21 22  2  0  0  0
 22 23  1  0  0  0
 23 24  2  0  0  0
 24 25  1  0  0  0
 25 26  2  0  0  0
 24  1  1  0  0  0
  1  2  1  0  0  0
  2  3  1  0  0  0
  3  4  2  0  0  0
  4  5  1  0  0  0
  5  6  2  0  0  0
  6  7  1  0  0  0
  6  8  1  0  0  0
  8  9  2  0  0  0
  9 10  1  0  0  0
 10 11  1  0  0  0
 11 13  1  0  0  0
 13 14  2  0  0  0
 14 15  1  0  0  0
 15 16  2  0  0  0
 16 17  1  0  0  0
 16 18  1  0  0  0
 18 19  2  0  0  0
 30 31  1  0  0  0
 31 32  1  0  0  0
 32 33  1  0  0  0
 33 34  1  0  0  0
 34 35  1  0  0  0
 35 36  1  0  0  0
 26 21  1  0  0  0
 11  1  1  0  0  0
 19 13  1  0  0  0
 36 31  1  0  0  0
  9  3  1  0  0  0
  7 12  1  0  0  0
 17 20  1  0  0  0
M  END
> <minimizedAffinity>
9.05108

> <CNNscore>
0.2082413137

> <CNNaffinity>
7.4107270241

> <CNN_VS>
1.5432195663

> <CNNaffinity_variance>
0.2689696848

$$$$
[H]Oc1c([H])c([H])c([C@@]2([H])Sc3c([H])c(O[H])c([H])c([H])c3O[C@]2([H])c2c([H])c([H])c(OC([H])([H])C([H])([H])N3C([H])([H])C([H])([H])C([H])([H])C([H])([H])C3([H])[H])c([H])c2[H])c([H])c1[H]


 35 39  0  0  0  0  0  0  0  0999 V2000
    9.9140   46.5889  131.6614 C   0  0  0  0  0  0  0  0  0  0  0  0
   10.8319   45.0367  131.4272 S   0  0  0  0  0  0  0  0  0  0  0  0
   10.6458   44.6656  129.7137 C   0  0  0  0  0  0  0  0  0  0  0  0
   11.6176   44.0596  129.0099 C   0  0  0  0  0  0  0  0  0  0  0  0
   11.4806   43.7628  127.6444 C   0  0  0  0  0  0  0  0  0  0  0  0
   12.4917   43.1367  126.9290 O   0  0  0  0  0  0  0  0  0  0  0  0
   10.2962   44.1185  127.0344 C   0  0  0  0  0  0  0  0  0  0  0  0
    9.2787   44.7458  127.7430 C   0  0  0  0  0  0  0  0  0  0  0  0
    9.4657   45.0197  129.1032 C   0  0  0  0  0  0  0  0  0  0  0  0
    8.5200   45.6298  129.8634 O   0  0  0  0  0  0  0  0  0  0  0  0
    8.6253   46.4824  130.9323 C   0  0  0  0  0  0  0  0  0  0  0  0
   13.1697   43.7707  126.4885 H   0  0  0  0  0  0  0  0  0  0  0  0
    9.0711   47.6916  137.1562 O   0  0  0  0  0  0  0  0  0  0  0  0
    9.2895   47.4074  135.7910 C   0  0  0  0  0  0  0  0  0  0  0  0
   10.0741   46.3589  135.3982 C   0  0  0  0  0  0  0  0  0  0  0  0
   10.2732   46.1002  134.0587 C   0  0  0  0  0  0  0  0  0  0  0  0
    9.7003   46.8731  133.0790 C   0  0  0  0  0  0  0  0  0  0  0  0
    8.9126   47.9263  133.4752 C   0  0  0  0  0  0  0  0  0  0  0  0
    8.7048   48.1968  134.8348 C   0  0  0  0  0  0  0  0  0  0  0  0
    9.7180   48.3289  137.6332 H   0  0  0  0  0  0  0  0  0  0  0  0
    8.1455   47.8339  130.4585 C   0  0  0  0  0  0  0  0  0  0  0  0
    8.8825   48.9726  130.6795 C   0  0  0  0  0  0  0  0  0  0  0  0
    8.4333   50.2248  130.2366 C   0  0  0  0  0  0  0  0  0  0  0  0
    7.2365   50.3143  129.5707 C   0  0  0  0  0  0  0  0  0  0  0  0
    6.4880   49.1884  129.3414 C   0  0  0  0  0  0  0  0  0  0  0  0
    6.9404   47.9622  129.7819 C   0  0  0  0  0  0  0  0  0  0  0  0
    6.7839   51.5354  129.1308 O   0  0  0  0  0  0  0  0  0  0  0  0
    7.4684   52.4414  128.3133 C   0  0  0  0  0  0  0  0  0  0  0  0
    6.4642   53.1151  127.4122 C   0  0  0  0  0  0  0  0  0  0  0  0
    6.9986   53.5687  126.1663 N   0  0  0  0  0  0  0  0  0  0  0  0
    6.1939   54.5770  125.5127 C   0  0  0  0  0  0  0  0  0  0  0  0
    6.6013   54.6598  124.0592 C   0  0  0  0  0  0  0  0  0  0  0  0
    8.0205   54.1540  123.9346 C   0  0  0  0  0  0  0  0  0  0  0  0
    8.8644   54.6573  125.0838 C   0  0  0  0  0  0  0  0  0  0  0  0
    8.3210   54.1316  126.3736 C   0  0  0  0  0  0  0  0  0  0  0  0
 13 14  1  0  0  0
 14 15  2  0  0  0
 15 16  1  0  0  0
 16 17  2  0  0  0
 17 18  1  0  0  0
 18 19  2  0  0  0
 17  1  1  0  0  0
  1  2  1  0  0  0
  2  3  1  0  0  0
  3  4  2  0  0  0
  4  5  1  0  0  0
  5  6  1  0  0  0
  5  7  2  0  0  0
  7  8  1  0  0  0
  8  9  2  0  0  0
  9 10  1  0  0  0
 10 11  1  0  0  0
 11 21  1  0  0  0
 21 22  2  0  0  0
 22 23  1  0  0  0
 23 24  2  0  0  0
 24 27  1  0  0  0
 27 28  1  0  0  0
 28 29  1  0  0  0
 29 30  1  0  0  0
 30 31  1  0  0  0
 31 32  1  0  0  0
 32 33  1  0  0  0
 33 34  1  0  0  0
 34 35  1  0  0  0
 24 25  1  0  0  0
 25 26  2  0  0  0
 19 14  1  0  0  0
 11  1  1  0  0  0
 26 21  1  0  0  0
  9  3  1  0  0  0
 35 30  1  0  0  0
 13 20  1  0  0  0
  6 12  1  0  0  0
M  END
> <minimizedAffinity>
5.53831

> <CNNscore>
0.4088413119

> <CNNaffinity>
7.2155776024

> <CNN_VS>
2.9500262737

> <CNNaffinity_variance>
1.0563218594

$$$$
[H]Oc1c([H])c([H])c([C@@]2([H])Sc3c([H])c(O[H])c([H])c([H])c3O[C@]2([H])c2c([H])c([H])c(OC([H])([H])C([H])([H])N3C([H])([H])C([H])([H])C([H])([H])C([H])([H])C3([H])[H])c([H])c2[H])c([H])c1[H]


 35 39  0  0  0  0  0  0  0  0999 V2000
    8.8998   46.2652  129.1433 C   0  0  0  0  0  0  0  0  0  0  0  0
    8.4805   47.4856  127.8620 S   0  0  0  0  0  0  0  0  0  0  0  0
    7.5040   48.6909  128.7001 C   0  0  0  0  0  0  0  0  0  0  0  0
    7.5452   49.9927  128.3676 C   0  0  0  0  0  0  0  0  0  0  0  0
    6.7742   50.9606  129.0309 C   0  0  0  0  0  0  0  0  0  0  0  0
    6.8260   52.3019  128.6777 O   0  0  0  0  0  0  0  0  0  0  0  0
    5.9572   50.5279  130.0539 C   0  0  0  0  0  0  0  0  0  0  0  0
    5.8993   49.1871  130.4141 C   0  0  0  0  0  0  0  0  0  0  0  0
    6.6888   48.2617  129.7209 C   0  0  0  0  0  0  0  0  0  0  0  0
    6.6884   46.9354  130.0133 O   0  0  0  0  0  0  0  0  0  0  0  0
    7.6786   45.9895  129.9411 C   0  0  0  0  0  0  0  0  0  0  0  0
    7.5339   52.8557  129.1755 H   0  0  0  0  0  0  0  0  0  0  0  0
   11.0002   41.5143  126.8769 O   0  0  0  0  0  0  0  0  0  0  0  0
   10.4650   42.6923  127.4410 C   0  0  0  0  0  0  0  0  0  0  0  0
    9.1441   42.7825  127.7821 C   0  0  0  0  0  0  0  0  0  0  0  0
    8.6433   43.9434  128.3320 C   0  0  0  0  0  0  0  0  0  0  0  0
    9.4386   45.0400  128.5564 C   0  0  0  0  0  0  0  0  0  0  0  0
   10.7654   44.9480  128.2128 C   0  0  0  0  0  0  0  0  0  0  0  0
   11.2830   43.7717  127.6531 C   0  0  0  0  0  0  0  0  0  0  0  0
   10.9932   41.4133  125.8561 H   0  0  0  0  0  0  0  0  0  0  0  0
    8.0215   45.6105  131.3623 C   0  0  0  0  0  0  0  0  0  0  0  0
    7.3431   46.1481  132.4298 C   0  0  0  0  0  0  0  0  0  0  0  0
    7.6643   45.7921  133.7473 C   0  0  0  0  0  0  0  0  0  0  0  0
    8.6742   44.8908  133.9744 C   0  0  0  0  0  0  0  0  0  0  0  0
    9.3618   44.3443  132.9213 C   0  0  0  0  0  0  0  0  0  0  0  0
    9.0365   44.7024  131.6297 C   0  0  0  0  0  0  0  0  0  0  0  0
    8.9999   44.5326  135.2610 O   0  0  0  0  0  0  0  0  0  0  0  0
    9.9183   45.1678  136.1040 C   0  0  0  0  0  0  0  0  0  0  0  0
   11.0630   45.6705  135.2607 C   0  0  0  0  0  0  0  0  0  0  0  0
   10.7933   46.8890  134.5636 N   0  0  0  0  0  0  0  0  0  0  0  0
   10.8289   46.7637  133.1233 C   0  0  0  0  0  0  0  0  0  0  0  0
   10.9630   48.1420  132.5167 C   0  0  0  0  0  0  0  0  0  0  0  0
   10.4245   49.1502  133.5061 C   0  0  0  0  0  0  0  0  0  0  0  0
    9.1655   48.6286  134.1610 C   0  0  0  0  0  0  0  0  0  0  0  0
    9.4770   47.3830  134.9268 C   0  0  0  0  0  0  0  0  0  0  0  0
 13 14  1  0  0  0
 14 15  2  0  0  0
 15 16  1  0  0  0
 16 17  2  0  0  0
 17 18  1  0  0  0
 18 19  2  0  0  0
 17  1  1  0  0  0
  1  2  1  0  0  0
  2  3  1  0  0  0
  3  4  2  0  0  0
  4  5  1  0  0  0
  5  6  1  0  0  0
  5  7  2  0  0  0
  7  8  1  0  0  0
  8  9  2  0  0  0
  9 10  1  0  0  0
 10 11  1  0  0  0
 11 21  1  0  0  0
 21 22  2  0  0  0
 22 23  1  0  0  0
 23 24  2  0  0  0
 24 27  1  0  0  0
 27 28  1  0  0  0
 28 29  1  0  0  0
 29 30  1  0  0  0
 30 31  1  0  0  0
 31 32  1  0  0  0
 32 33  1  0  0  0
 33 34  1  0  0  0
 34 35  1  0  0  0
 24 25  1  0  0  0
 25 26  2  0  0  0
 19 14  1  0  0  0
 11  1  1  0  0  0
 26 21  1  0  0  0
  9  3  1  0  0  0
 35 30  1  0  0  0
 13 20  1  0  0  0
  6 12  1  0  0  0
M  END
> <minimizedAffinity>
8.43222

> <CNNscore>
0.3547062576

> <CNNaffinity>
7.2084946632

> <CNN_VS>
2.5568981171

> <CNNaffinity_variance>
0.5368889570

$$$$
[H]Oc1c([H])c([H])c([C@@]2([H])Sc3c([H])c(O[H])c([H])c([H])c3O[C@]2([H])c2c([H])c([H])c(OC([H])([H])C([H])([H])N3C([H])([H])C([H])([H])C([H])([H])C([H])([H])C3([H])[H])c([H])c2[H])c([H])c1[H]


 35 39  0  0  0  0  0  0  0  0999 V2000
    8.4172   47.2751  129.7431 C   0  0  0  0  0  0  0  0  0  0  0  0
    8.4923   46.5288  128.0865 S   0  0  0  0  0  0  0  0  0  0  0  0
    9.4338   45.0544  128.3065 C   0  0  0  0  0  0  0  0  0  0  0  0
    9.1894   43.9436  127.5901 C   0  0  0  0  0  0  0  0  0  0  0  0
    9.9311   42.7636  127.7601 C   0  0  0  0  0  0  0  0  0  0  0  0
    9.6687   41.6232  127.0138 O   0  0  0  0  0  0  0  0  0  0  0  0
   10.9376   42.7781  128.7024 C   0  0  0  0  0  0  0  0  0  0  0  0
   11.2071   43.9153  129.4541 C   0  0  0  0  0  0  0  0  0  0  0  0
   10.4378   45.0664  129.2460 C   0  0  0  0  0  0  0  0  0  0  0  0
   10.6389   46.2162  129.9404 O   0  0  0  0  0  0  0  0  0  0  0  0
    9.7681   47.1918  130.3530 C   0  0  0  0  0  0  0  0  0  0  0  0
    8.9829   40.9804  127.4285 H   0  0  0  0  0  0  0  0  0  0  0  0
    6.5748   52.6295  129.5091 O   0  0  0  0  0  0  0  0  0  0  0  0
    7.0381   51.2981  129.5796 C   0  0  0  0  0  0  0  0  0  0  0  0
    7.5759   50.7909  130.7297 C   0  0  0  0  0  0  0  0  0  0  0  0
    8.0219   49.4871  130.7754 C   0  0  0  0  0  0  0  0  0  0  0  0
    7.9453   48.6570  129.6843 C   0  0  0  0  0  0  0  0  0  0  0  0
    7.4050   49.1681  128.5294 C   0  0  0  0  0  0  0  0  0  0  0  0
    6.9492   50.4925  128.4739 C   0  0  0  0  0  0  0  0  0  0  0  0
    7.2327   53.3622  129.2219 H   0  0  0  0  0  0  0  0  0  0  0  0
    9.6894   47.0952  131.8582 C   0  0  0  0  0  0  0  0  0  0  0  0
   10.6588   47.6452  132.6622 C   0  0  0  0  0  0  0  0  0  0  0  0
   10.5805   47.5538  134.0591 C   0  0  0  0  0  0  0  0  0  0  0  0
    9.5168   46.9035  134.6331 C   0  0  0  0  0  0  0  0  0  0  0  0
    8.5403   46.3487  133.8463 C   0  0  0  0  0  0  0  0  0  0  0  0
    8.6284   46.4452  132.4733 C   0  0  0  0  0  0  0  0  0  0  0  0
    9.4272   46.8064  136.0014 O   0  0  0  0  0  0  0  0  0  0  0  0
   10.1357   45.9300  136.8306 C   0  0  0  0  0  0  0  0  0  0  0  0
   10.0138   44.5393  136.2603 C   0  0  0  0  0  0  0  0  0  0  0  0
   10.6701   44.3559  135.0037 N   0  0  0  0  0  0  0  0  0  0  0  0
   12.0440   43.9184  135.1153 C   0  0  0  0  0  0  0  0  0  0  0  0
   12.7453   44.1724  133.8002 C   0  0  0  0  0  0  0  0  0  0  0  0
   11.7028   44.2096  132.7060 C   0  0  0  0  0  0  0  0  0  0  0  0
   10.6691   43.1277  132.9229 C   0  0  0  0  0  0  0  0  0  0  0  0
    9.9583   43.3646  134.2167 C   0  0  0  0  0  0  0  0  0  0  0  0
 13 14  1  0  0  0
 14 15  2  0  0  0
 15 16  1  0  0  0
 16 17  2  0  0  0
 17 18  1  0  0  0
 18 19  2  0  0  0
 17  1  1  0  0  0
  1  2  1  0  0  0
  2  3  1  0  0  0
  3  4  2  0  0  0
  4  5  1  0  0  0
  5  6  1  0  0  0
  5  7  2  0  0  0
  7  8  1  0  0  0
  8  9  2  0  0  0
  9 10  1  0  0  0
 10 11  1  0  0  0
 11 21  1  0  0  0
 21 22  2  0  0  0
 22 23  1  0  0  0
 23 24  2  0  0  0
 24 27  1  0  0  0
 27 28  1  0  0  0
 28 29  1  0  0  0
 29 30  1  0  0  0
 30 31  1  0  0  0
 31 32  1  0  0  0
 32 33  1  0  0  0
 33 34  1  0  0  0
 34 35  1  0  0  0
 24 25  1  0  0  0
 25 26  2  0  0  0
 19 14  1  0  0  0
 11  1  1  0  0  0
 26 21  1  0  0  0
  9  3  1  0  0  0
 35 30  1  0  0  0
 13 20  1  0  0  0
  6 12  1  0  0  0
M  END
> <minimizedAffinity>
5.13890

> <CNNscore>
0.3411299586

> <CNNaffinity>
7.4487924576

> <CNN_VS>
2.5410063267

> <CNNaffinity_variance>
0.4039631784

$$$$
[H]Oc1c([H])c([H])c([C@@]2([H])Sc3c([H])c(O[H])c([H])c([H])c3O[C@]2([H])c2c([H])c([H])c(OC([H])([H])C([H])([H])N3C([H])([H])C([H])([H])C([H])([H])C([H])([H])C3([H])[H])c([H])c2[H])c([H])c1[H]


 35 39  0  0  0  0  0  0  0  0999 V2000
    8.6157   48.3023  131.5178 C   0  0  0  0  0  0  0  0  0  0  0  0
    8.3917   48.8008  133.2522 S   0  0  0  0  0  0  0  0  0  0  0  0
    8.7031   47.3336  134.1791 C   0  0  0  0  0  0  0  0  0  0  0  0
    9.2769   47.3711  135.3941 C   0  0  0  0  0  0  0  0  0  0  0  0
    9.5322   46.2084  136.1387 C   0  0  0  0  0  0  0  0  0  0  0  0
   10.1253   46.2607  137.3924 O   0  0  0  0  0  0  0  0  0  0  0  0
    9.1699   45.0031  135.5756 C   0  0  0  0  0  0  0  0  0  0  0  0
    8.5757   44.9414  134.3210 C   0  0  0  0  0  0  0  0  0  0  0  0
    8.3430   46.1304  133.6194 C   0  0  0  0  0  0  0  0  0  0  0  0
    7.7677   46.1534  132.3892 O   0  0  0  0  0  0  0  0  0  0  0  0
    7.9455   46.9926  131.3194 C   0  0  0  0  0  0  0  0  0  0  0  0
   11.1515   46.2093  137.3906 H   0  0  0  0  0  0  0  0  0  0  0  0
    6.5903   52.2262  127.9653 O   0  0  0  0  0  0  0  0  0  0  0  0
    7.0920   51.2396  128.8411 C   0  0  0  0  0  0  0  0  0  0  0  0
    7.1980   49.9321  128.4558 C   0  0  0  0  0  0  0  0  0  0  0  0
    7.6913   48.9854  129.3284 C   0  0  0  0  0  0  0  0  0  0  0  0
    8.0905   49.3120  130.6009 C   0  0  0  0  0  0  0  0  0  0  0  0
    7.9831   50.6259  130.9867 C   0  0  0  0  0  0  0  0  0  0  0  0
    7.4826   51.5950  130.1062 C   0  0  0  0  0  0  0  0  0  0  0  0
    5.5813   52.4113  127.9629 H   0  0  0  0  0  0  0  0  0  0  0  0
    8.6243   46.1827  130.2404 C   0  0  0  0  0  0  0  0  0  0  0  0
    8.1980   44.9157  129.9215 C   0  0  0  0  0  0  0  0  0  0  0  0
    8.8308   44.1684  128.9182 C   0  0  0  0  0  0  0  0  0  0  0  0
    9.8948   44.7122  128.2428 C   0  0  0  0  0  0  0  0  0  0  0  0
   10.3338   45.9750  128.5478 C   0  0  0  0  0  0  0  0  0  0  0  0
    9.7030   46.7004  129.5369 C   0  0  0  0  0  0  0  0  0  0  0  0
   10.5247   43.9908  127.2567 O   0  0  0  0  0  0  0  0  0  0  0  0
   11.7082   43.2546  127.3788 C   0  0  0  0  0  0  0  0  0  0  0  0
   12.6181   43.9803  128.3378 C   0  0  0  0  0  0  0  0  0  0  0  0
   12.1128   44.0805  129.6712 N   0  0  0  0  0  0  0  0  0  0  0  0
   11.7876   42.8072  130.2749 C   0  0  0  0  0  0  0  0  0  0  0  0
   10.8865   43.0473  131.4649 C   0  0  0  0  0  0  0  0  0  0  0  0
   11.1207   44.4561  131.9608 C   0  0  0  0  0  0  0  0  0  0  0  0
   12.5951   44.7896  131.9301 C   0  0  0  0  0  0  0  0  0  0  0  0
   13.0943   44.7296  130.5221 C   0  0  0  0  0  0  0  0  0  0  0  0
 13 14  1  0  0  0
 14 15  2  0  0  0
 15 16  1  0  0  0
 16 17  2  0  0  0
 17 18  1  0  0  0
 18 19  2  0  0  0
 17  1  1  0  0  0
  1  2  1  0  0  0
  2  3  1  0  0  0
  3  4  2  0  0  0
  4  5  1  0  0  0
  5  6  1  0  0  0
  5  7  2  0  0  0
  7  8  1  0  0  0
  8  9  2  0  0  0
  9 10  1  0  0  0
 10 11  1  0  0  0
 11 21  1  0  0  0
 21 22  2  0  0  0
 22 23  1  0  0  0
 23 24  2  0  0  0
 24 27  1  0  0  0
 27 28  1  0  0  0
 28 29  1  0  0  0
 29 30  1  0  0  0
 30 31  1  0  0  0
 31 32  1  0  0  0
 32 33  1  0  0  0
 33 34  1  0  0  0
 34 35  1  0  0  0
 24 25  1  0  0  0
 25 26  2  0  0  0
 19 14  1  0  0  0
 11  1  1  0  0  0
 26 21  1  0  0  0
  9  3  1  0  0  0
 35 30  1  0  0  0
 13 20  1  0  0  0
  6 12  1  0  0  0
M  END
> <minimizedAffinity>
5.24148

> <CNNscore>
0.3193385005

> <CNNaffinity>
7.3886680603

> <CNN_VS>
2.3594861031

> <CNNaffinity_variance>
0.4156954288

$$$$
[H]Oc1c([H])c([H])c([C@@]2([H])Sc3c([H])c(O[H])c([H])c([H])c3O[C@]2([H])c2c([H])c([H])c(OC([H])([H])C([H])([H])N3C([H])([H])C([H])([H])C([H])([H])C([H])([H])C3([H])[H])c([H])c2[H])c([H])c1[H]


 35 39  0  0  0  0  0  0  0  0999 V2000
   11.4349   45.6479  132.9151 C   0  0  0  0  0  0  0  0  0  0  0  0
   12.5861   44.2938  132.5300 S   0  0  0  0  0  0  0  0  0  0  0  0
   12.7712   44.3540  130.7776 C   0  0  0  0  0  0  0  0  0  0  0  0
   13.9301   44.0353  130.1758 C   0  0  0  0  0  0  0  0  0  0  0  0
   14.0887   44.0832  128.7815 C   0  0  0  0  0  0  0  0  0  0  0  0
   15.2909   43.7515  128.1724 O   0  0  0  0  0  0  0  0  0  0  0  0
   12.9989   44.4746  128.0329 C   0  0  0  0  0  0  0  0  0  0  0  0
   11.7917   44.8086  128.6345 C   0  0  0  0  0  0  0  0  0  0  0  0
   11.6859   44.7445  130.0291 C   0  0  0  0  0  0  0  0  0  0  0  0
   10.5413   45.0552  130.6911 O   0  0  0  0  0  0  0  0  0  0  0  0
   10.3294   45.6151  131.9248 C   0  0  0  0  0  0  0  0  0  0  0  0
   15.9438   44.5343  128.0437 H   0  0  0  0  0  0  0  0  0  0  0  0
    9.4787   45.2380  138.2184 O   0  0  0  0  0  0  0  0  0  0  0  0
    9.9598   45.3517  136.8963 C   0  0  0  0  0  0  0  0  0  0  0  0
    9.7452   46.4800  136.1546 C   0  0  0  0  0  0  0  0  0  0  0  0
   10.2248   46.5689  134.8651 C   0  0  0  0  0  0  0  0  0  0  0  0
   10.9271   45.5433  134.2816 C   0  0  0  0  0  0  0  0  0  0  0  0
   11.1415   44.4102  135.0278 C   0  0  0  0  0  0  0  0  0  0  0  0
   10.6575   44.3112  136.3396 C   0  0  0  0  0  0  0  0  0  0  0  0
    8.5413   44.8486  138.3664 H   0  0  0  0  0  0  0  0  0  0  0  0
    9.7625   46.9941  131.6842 C   0  0  0  0  0  0  0  0  0  0  0  0
    8.5843   47.3951  132.2672 C   0  0  0  0  0  0  0  0  0  0  0  0
    8.0628   48.6768  132.0417 C   0  0  0  0  0  0  0  0  0  0  0  0
    8.7412   49.5460  131.2242 C   0  0  0  0  0  0  0  0  0  0  0  0
    9.9182   49.1628  130.6341 C   0  0  0  0  0  0  0  0  0  0  0  0
   10.4212   47.8992  130.8636 C   0  0  0  0  0  0  0  0  0  0  0  0
    8.2415   50.8058  130.9943 O   0  0  0  0  0  0  0  0  0  0  0  0
    7.0605   51.1318  130.3187 C   0  0  0  0  0  0  0  0  0  0  0  0
    6.9862   50.2933  129.0675 C   0  0  0  0  0  0  0  0  0  0  0  0
    6.7551   48.9020  129.3009 N   0  0  0  0  0  0  0  0  0  0  0  0
    5.4272   48.4571  128.9401 C   0  0  0  0  0  0  0  0  0  0  0  0
    5.1585   47.1291  129.6109 C   0  0  0  0  0  0  0  0  0  0  0  0
    6.4859   46.4650  129.8974 C   0  0  0  0  0  0  0  0  0  0  0  0
    7.4337   46.6533  128.7345 C   0  0  0  0  0  0  0  0  0  0  0  0
    7.7037   48.1106  128.5378 C   0  0  0  0  0  0  0  0  0  0  0  0
 13 14  1  0  0  0
 14 15  2  0  0  0
 15 16  1  0  0  0
 16 17  2  0  0  0
 17 18  1  0  0  0
 18 19  2  0  0  0
 17  1  1  0  0  0
  1  2  1  0  0  0
  2  3  1  0  0  0
  3  4  2  0  0  0
  4  5  1  0  0  0
  5  6  1  0  0  0
  5  7  2  0  0  0
  7  8  1  0  0  0
  8  9  2  0  0  0
  9 10  1  0  0  0
 10 11  1  0  0  0
 11 21  1  0  0  0
 21 22  2  0  0  0
 22 23  1  0  0  0
 23 24  2  0  0  0
 24 27  1  0  0  0
 27 28  1  0  0  0
 28 29  1  0  0  0
 29 30  1  0  0  0
 30 31  1  0  0  0
 31 32  1  0  0  0
 32 33  1  0  0  0
 33 34  1  0  0  0
 34 35  1  0  0  0
 24 25  1  0  0  0
 25 26  2  0  0  0
 19 14  1  0  0  0
 11  1  1  0  0  0
 26 21  1  0  0  0
  9  3  1  0  0  0
 35 30  1  0  0  0
 13 20  1  0  0  0
  6 12  1  0  0  0
M  END
> <minimizedAffinity>
5.85868

> <CNNscore>
0.3079574406

> <CNNaffinity>
7.4996466637

> <CNN_VS>
2.3095719814

> <CNNaffinity_variance>
0.4993959367

$$$$
[H]Oc1c([H])c([H])c([C@@]2([H])Sc3c([H])c(O[H])c([H])c([H])c3O[C@]2([H])c2c([H])c([H])c(OC([H])([H])C([H])([H])N3C([H])([H])C([H])([H])C([H])([H])C([H])([H])C3([H])[H])c([H])c2[H])c([H])c1[H]


 35 39  0  0  0  0  0  0  0  0999 V2000
    9.3334   45.7213  131.2803 C   0  0  0  0  0  0  0  0  0  0  0  0
    9.9212   44.6389  132.6181 S   0  0  0  0  0  0  0  0  0  0  0  0
   10.0392   45.6959  134.0243 C   0  0  0  0  0  0  0  0  0  0  0  0
    9.7888   45.2518  135.2681 C   0  0  0  0  0  0  0  0  0  0  0  0
    9.8766   46.0861  136.3939 C   0  0  0  0  0  0  0  0  0  0  0  0
    9.6155   45.6150  137.6731 O   0  0  0  0  0  0  0  0  0  0  0  0
   10.2344   47.4008  136.1819 C   0  0  0  0  0  0  0  0  0  0  0  0
   10.4974   47.8809  134.9047 C   0  0  0  0  0  0  0  0  0  0  0  0
   10.3954   47.0074  133.8153 C   0  0  0  0  0  0  0  0  0  0  0  0
   10.6358   47.4003  132.5376 O   0  0  0  0  0  0  0  0  0  0  0  0
   10.0913   46.9961  131.3457 C   0  0  0  0  0  0  0  0  0  0  0  0
    8.6366   45.6951  137.9746 H   0  0  0  0  0  0  0  0  0  0  0  0
    9.9183   43.2429  126.2172 O   0  0  0  0  0  0  0  0  0  0  0  0
    9.7624   43.8522  127.4808 C   0  0  0  0  0  0  0  0  0  0  0  0
    8.8509   43.3882  128.3879 C   0  0  0  0  0  0  0  0  0  0  0  0
    8.7162   43.9991  129.6165 C   0  0  0  0  0  0  0  0  0  0  0  0
    9.4806   45.0823  129.9741 C   0  0  0  0  0  0  0  0  0  0  0  0
   10.3957   45.5476  129.0616 C   0  0  0  0  0  0  0  0  0  0  0  0
   10.5393   44.9326  127.8101 C   0  0  0  0  0  0  0  0  0  0  0  0
    9.3485   43.5843  125.4355 H   0  0  0  0  0  0  0  0  0  0  0  0
    9.2705   48.1536  130.8286 C   0  0  0  0  0  0  0  0  0  0  0  0
    9.5067   49.4414  131.2465 C   0  0  0  0  0  0  0  0  0  0  0  0
    8.7427   50.5128  130.7624 C   0  0  0  0  0  0  0  0  0  0  0  0
    7.7414   50.2706  129.8554 C   0  0  0  0  0  0  0  0  0  0  0  0
    7.4918   48.9920  129.4274 C   0  0  0  0  0  0  0  0  0  0  0  0
    8.2502   47.9463  129.9107 C   0  0  0  0  0  0  0  0  0  0  0  0
    6.9845   51.3115  129.3724 O   0  0  0  0  0  0  0  0  0  0  0  0
    6.7841   51.6539  128.0306 C   0  0  0  0  0  0  0  0  0  0  0  0
    7.0523   53.1298  127.8755 C   0  0  0  0  0  0  0  0  0  0  0  0
    7.2665   53.5533  126.5271 N   0  0  0  0  0  0  0  0  0  0  0  0
    6.2923   54.5088  126.0482 C   0  0  0  0  0  0  0  0  0  0  0  0
    6.3505   54.5499  124.5381 C   0  0  0  0  0  0  0  0  0  0  0  0
    7.7225   54.0872  124.1034 C   0  0  0  0  0  0  0  0  0  0  0  0
    8.7868   54.6615  125.0109 C   0  0  0  0  0  0  0  0  0  0  0  0
    8.5769   54.1673  126.4062 C   0  0  0  0  0  0  0  0  0  0  0  0
 13 14  1  0  0  0
 14 15  2  0  0  0
 15 16  1  0  0  0
 16 17  2  0  0  0
 17 18  1  0  0  0
 18 19  2  0  0  0
 17  1  1  0  0  0
  1  2  1  0  0  0
  2  3  1  0  0  0
  3  4  2  0  0  0
  4  5  1  0  0  0
  5  6  1  0  0  0
  5  7  2  0  0  0
  7  8  1  0  0  0
  8  9  2  0  0  0
  9 10  1  0  0  0
 10 11  1  0  0  0
 11 21  1  0  0  0
 21 22  2  0  0  0
 22 23  1  0  0  0
 23 24  2  0  0  0
 24 27  1  0  0  0
 27 28  1  0  0  0
 28 29  1  0  0  0
 29 30  1  0  0  0
 30 31  1  0  0  0
 31 32  1  0  0  0
 32 33  1  0  0  0
 33 34  1  0  0  0
 34 35  1  0  0  0
 24 25  1  0  0  0
 25 26  2  0  0  0
 19 14  1  0  0  0
 11  1  1  0  0  0
 26 21  1  0  0  0
  9  3  1  0  0  0
 35 30  1  0  0  0
 13 20  1  0  0  0
  6 12  1  0  0  0
M  END
> <minimizedAffinity>
4.70171

> <CNNscore>
0.3004744351

> <CNNaffinity>
7.2350301743

> <CNN_VS>
2.1739416122

> <CNNaffinity_variance>
0.8246612549

$$$$
[H]Oc1c([H])c([H])c([C@@]2([H])Sc3c([H])c(O[H])c([H])c([H])c3O[C@]2([H])c2c([H])c([H])c(OC([H])([H])C([H])([H])N3C([H])([H])C([H])([H])C([H])([H])C([H])([H])C3([H])[H])c([H])c2[H])c([H])c1[H]


 35 39  0  0  0  0  0  0  0  0999 V2000
    9.6177   47.5460  131.8401 C   0  0  0  0  0  0  0  0  0  0  0  0
    8.8571   49.1307  132.3060 S   0  0  0  0  0  0  0  0  0  0  0  0
    7.7912   49.5243  130.9578 C   0  0  0  0  0  0  0  0  0  0  0  0
    6.6280   50.1730  131.1397 C   0  0  0  0  0  0  0  0  0  0  0  0
    5.7706   50.4881  130.0733 C   0  0  0  0  0  0  0  0  0  0  0  0
    4.5721   51.1584  130.2746 O   0  0  0  0  0  0  0  0  0  0  0  0
    6.1649   50.1048  128.8089 C   0  0  0  0  0  0  0  0  0  0  0  0
    7.3630   49.4333  128.5982 C   0  0  0  0  0  0  0  0  0  0  0  0
    8.1821   49.1428  129.6960 C   0  0  0  0  0  0  0  0  0  0  0  0
    9.3666   48.4898  129.5725 O   0  0  0  0  0  0  0  0  0  0  0  0
   10.0175   47.6232  130.4125 C   0  0  0  0  0  0  0  0  0  0  0  0
    3.7597   50.5540  130.4487 H   0  0  0  0  0  0  0  0  0  0  0  0
   14.0394   46.3224  135.1675 O   0  0  0  0  0  0  0  0  0  0  0  0
   12.9440   46.6207  134.3288 C   0  0  0  0  0  0  0  0  0  0  0  0
   12.8590   46.1158  133.0611 C   0  0  0  0  0  0  0  0  0  0  0  0
   11.7792   46.4206  132.2598 C   0  0  0  0  0  0  0  0  0  0  0  0
   10.7603   47.2314  132.6954 C   0  0  0  0  0  0  0  0  0  0  0  0
   10.8472   47.7382  133.9691 C   0  0  0  0  0  0  0  0  0  0  0  0
   11.9414   47.4336  134.7907 C   0  0  0  0  0  0  0  0  0  0  0  0
   14.8583   46.9397  135.1413 H   0  0  0  0  0  0  0  0  0  0  0  0
    9.9753   46.2652  129.7530 C   0  0  0  0  0  0  0  0  0  0  0  0
   11.1237   45.6372  129.3341 C   0  0  0  0  0  0  0  0  0  0  0  0
   11.0793   44.3758  128.7235 C   0  0  0  0  0  0  0  0  0  0  0  0
    9.8674   43.7579  128.5411 C   0  0  0  0  0  0  0  0  0  0  0  0
    8.7114   44.3698  128.9529 C   0  0  0  0  0  0  0  0  0  0  0  0
    8.7679   45.6107  129.5524 C   0  0  0  0  0  0  0  0  0  0  0  0
    9.8090   42.5211  127.9439 O   0  0  0  0  0  0  0  0  0  0  0  0
    9.8021   41.2773  128.5845 C   0  0  0  0  0  0  0  0  0  0  0  0
    8.9316   41.3836  129.8114 C   0  0  0  0  0  0  0  0  0  0  0  0
    9.4495   42.2408  130.8314 N   0  0  0  0  0  0  0  0  0  0  0  0
    8.5290   42.4833  131.9202 C   0  0  0  0  0  0  0  0  0  0  0  0
    8.9911   43.7010  132.6878 C   0  0  0  0  0  0  0  0  0  0  0  0
   10.4771   43.8669  132.4645 C   0  0  0  0  0  0  0  0  0  0  0  0
   11.1711   42.5242  132.5029 C   0  0  0  0  0  0  0  0  0  0  0  0
   10.6536   41.6599  131.3982 C   0  0  0  0  0  0  0  0  0  0  0  0
 13 14  1  0  0  0
 14 15  2  0  0  0
 15 16  1  0  0  0
 16 17  2  0  0  0
 17 18  1  0  0  0
 18 19  2  0  0  0
 17  1  1  0  0  0
  1  2  1  0  0  0
  2  3  1  0  0  0
  3  4  2  0  0  0
  4  5  1  0  0  0
  5  6  1  0  0  0
  5  7  2  0  0  0
  7  8  1  0  0  0
  8  9  2  0  0  0
  9 10  1  0  0  0
 10 11  1  0  0  0
 11 21  1  0  0  0
 21 22  2  0  0  0
 22 23  1  0  0  0
 23 24  2  0  0  0
 24 27  1  0  0  0
 27 28  1  0  0  0
 28 29  1  0  0  0
 29 30  1  0  0  0
 30 31  1  0  0  0
 31 32  1  0  0  0
 32 33  1  0  0  0
 33 34  1  0  0  0
 34 35  1  0  0  0
 24 25  1  0  0  0
 25 26  2  0  0  0
 19 14  1  0  0  0
 11  1  1  0  0  0
 26 21  1  0  0  0
  9  3  1  0  0  0
 35 30  1  0  0  0
 13 20  1  0  0  0
  6 12  1  0  0  0
M  END
> <minimizedAffinity>
6.81376

> <CNNscore>
0.2892157733

> <CNNaffinity>
7.5418701172

> <CNN_VS>
2.1812276840

> <CNNaffinity_variance>
0.4441051483

$$$$
[H]Oc1c([H])c([H])c([C@@]2([H])Sc3c([H])c(O[H])c([H])c([H])c3O[C@]2([H])c2c([H])c([H])c(OC([H])([H])C([H])([H])N3C([H])([H])C([H])([H])C([H])([H])C([H])([H])C3([H])[H])c([H])c2[H])c([H])c1[H]


 35 39  0  0  0  0  0  0  0  0999 V2000
    8.7905   42.7700  131.8642 C   0  0  0  0  0  0  0  0  0  0  0  0
    8.8094   42.0150  130.2099 S   0  0  0  0  0  0  0  0  0  0  0  0
    9.5160   43.2489  129.1674 C   0  0  0  0  0  0  0  0  0  0  0  0
   10.2881   42.9300  128.1142 C   0  0  0  0  0  0  0  0  0  0  0  0
   10.8582   43.9050  127.2801 C   0  0  0  0  0  0  0  0  0  0  0  0
   11.6537   43.5624  126.1956 O   0  0  0  0  0  0  0  0  0  0  0  0
   10.5975   45.2256  127.5789 C   0  0  0  0  0  0  0  0  0  0  0  0
    9.8023   45.5776  128.6627 C   0  0  0  0  0  0  0  0  0  0  0  0
    9.2578   44.5665  129.4637 C   0  0  0  0  0  0  0  0  0  0  0  0
    8.4717   44.8292  130.5398 O   0  0  0  0  0  0  0  0  0  0  0  0
    8.3144   44.1698  131.7318 C   0  0  0  0  0  0  0  0  0  0  0  0
   12.6571   43.4802  126.4010 H   0  0  0  0  0  0  0  0  0  0  0  0
    5.5347   39.8093  135.4354 O   0  0  0  0  0  0  0  0  0  0  0  0
    6.3550   40.5472  134.5552 C   0  0  0  0  0  0  0  0  0  0  0  0
    7.6396   40.8777  134.8868 C   0  0  0  0  0  0  0  0  0  0  0  0
    8.4227   41.5990  134.0108 C   0  0  0  0  0  0  0  0  0  0  0  0
    7.9518   42.0088  132.7878 C   0  0  0  0  0  0  0  0  0  0  0  0
    6.6610   41.6764  132.4562 C   0  0  0  0  0  0  0  0  0  0  0  0
    5.8576   40.9434  133.3407 C   0  0  0  0  0  0  0  0  0  0  0  0
    4.9575   40.3212  136.1115 H   0  0  0  0  0  0  0  0  0  0  0  0
    8.9062   45.0578  132.8006 C   0  0  0  0  0  0  0  0  0  0  0  0
   10.2547   45.0572  133.0655 C   0  0  0  0  0  0  0  0  0  0  0  0
   10.7994   45.8843  134.0580 C   0  0  0  0  0  0  0  0  0  0  0  0
    9.9709   46.7089  134.7772 C   0  0  0  0  0  0  0  0  0  0  0  0
    8.6228   46.7225  134.5264 C   0  0  0  0  0  0  0  0  0  0  0  0
    8.0987   45.9043  133.5475 C   0  0  0  0  0  0  0  0  0  0  0  0
   10.4912   47.5252  135.7532 O   0  0  0  0  0  0  0  0  0  0  0  0
   10.5388   48.9235  135.7429 C   0  0  0  0  0  0  0  0  0  0  0  0
   11.3729   49.3582  134.5642 C   0  0  0  0  0  0  0  0  0  0  0  0
   10.6430   49.4994  133.3432 N   0  0  0  0  0  0  0  0  0  0  0  0
   10.7269   48.3491  132.4707 C   0  0  0  0  0  0  0  0  0  0  0  0
   10.3041   48.7607  131.0787 C   0  0  0  0  0  0  0  0  0  0  0  0
    9.4090   49.9735  131.1938 C   0  0  0  0  0  0  0  0  0  0  0  0
    8.4593   49.8215  132.3604 C   0  0  0  0  0  0  0  0  0  0  0  0
    9.2383   49.7266  133.6329 C   0  0  0  0  0  0  0  0  0  0  0  0
 13 14  1  0  0  0
 14 15  2  0  0  0
 15 16  1  0  0  0
 16 17  2  0  0  0
 17 18  1  0  0  0
 18 19  2  0  0  0
 17  1  1  0  0  0
  1  2  1  0  0  0
  2  3  1  0  0  0
  3  4  2  0  0  0
  4  5  1  0  0  0
  5  6  1  0  0  0
  5  7  2  0  0  0
  7  8  1  0  0  0
  8  9  2  0  0  0
  9 10  1  0  0  0
 10 11  1  0  0  0
 11 21  1  0  0  0
 21 22  2  0  0  0
 22 23  1  0  0  0
 23 24  2  0  0  0
 24 27  1  0  0  0
 27 28  1  0  0  0
 28 29  1  0  0  0
 29 30  1  0  0  0
 30 31  1  0  0  0
 31 32  1  0  0  0
 32 33  1  0  0  0
 33 34  1  0  0  0
 34 35  1  0  0  0
 24 25  1  0  0  0
 25 26  2  0  0  0
 19 14  1  0  0  0
 11  1  1  0  0  0
 26 21  1  0  0  0
  9  3  1  0  0  0
 35 30  1  0  0  0
 13 20  1  0  0  0
  6 12  1  0  0  0
M  END
> <minimizedAffinity>
24.98907

> <CNNscore>
0.2721398771

> <CNNaffinity>
6.9185333252

> <CNN_VS>
1.8828088045

> <CNNaffinity_variance>
0.6698858142

$$$$
[H]Oc1c([H])c([H])c([C@@]2([H])Sc3c([H])c(O[H])c([H])c([H])c3O[C@]2([H])c2c([H])c([H])c(OC([H])([H])C([H])([H])N3C([H])([H])C([H])([H])C([H])([H])C([H])([H])C3([H])[H])c([H])c2[H])c([H])c1[H]


 35 39  0  0  0  0  0  0  0  0999 V2000
   10.4311   44.3139  131.1381 C   0  0  0  0  0  0  0  0  0  0  0  0
   10.0776   42.6137  131.6780 S   0  0  0  0  0  0  0  0  0  0  0  0
    8.7665   42.7825  132.8447 C   0  0  0  0  0  0  0  0  0  0  0  0
    7.8090   41.8481  132.9752 C   0  0  0  0  0  0  0  0  0  0  0  0
    6.7591   41.9746  133.8988 C   0  0  0  0  0  0  0  0  0  0  0  0
    5.7764   41.0024  134.0237 O   0  0  0  0  0  0  0  0  0  0  0  0
    6.7386   43.1081  134.6835 C   0  0  0  0  0  0  0  0  0  0  0  0
    7.7182   44.0865  134.5650 C   0  0  0  0  0  0  0  0  0  0  0  0
    8.7439   43.9122  133.6281 C   0  0  0  0  0  0  0  0  0  0  0  0
    9.7366   44.8224  133.4522 O   0  0  0  0  0  0  0  0  0  0  0  0
   10.4443   45.1898  132.3366 C   0  0  0  0  0  0  0  0  0  0  0  0
    4.9557   41.1334  133.4196 H   0  0  0  0  0  0  0  0  0  0  0  0
   15.3425   44.5969  128.3243 O   0  0  0  0  0  0  0  0  0  0  0  0
   14.1128   44.5291  129.0138 C   0  0  0  0  0  0  0  0  0  0  0  0
   12.9195   44.6267  128.3539 C   0  0  0  0  0  0  0  0  0  0  0  0
   11.7304   44.5575  129.0483 C   0  0  0  0  0  0  0  0  0  0  0  0
   11.6964   44.3899  130.4108 C   0  0  0  0  0  0  0  0  0  0  0  0
   12.8962   44.2924  131.0725 C   0  0  0  0  0  0  0  0  0  0  0  0
   14.1098   44.3618  130.3745 C   0  0  0  0  0  0  0  0  0  0  0  0
   15.7810   45.5152  128.1946 H   0  0  0  0  0  0  0  0  0  0  0  0
   10.0177   46.5980  131.9961 C   0  0  0  0  0  0  0  0  0  0  0  0
   10.6977   47.3464  131.0654 C   0  0  0  0  0  0  0  0  0  0  0  0
   10.2969   48.6528  130.7518 C   0  0  0  0  0  0  0  0  0  0  0  0
    9.2063   49.1934  131.3859 C   0  0  0  0  0  0  0  0  0  0  0  0
    8.5158   48.4612  132.3173 C   0  0  0  0  0  0  0  0  0  0  0  0
    8.9197   47.1770  132.6173 C   0  0  0  0  0  0  0  0  0  0  0  0
    8.8020   50.4732  131.0883 O   0  0  0  0  0  0  0  0  0  0  0  0
    7.5742   50.8616  130.5413 C   0  0  0  0  0  0  0  0  0  0  0  0
    7.3544   50.0775  129.2721 C   0  0  0  0  0  0  0  0  0  0  0  0
    7.0016   48.7075  129.4770 N   0  0  0  0  0  0  0  0  0  0  0  0
    5.6838   48.3600  128.9931 C   0  0  0  0  0  0  0  0  0  0  0  0
    5.2578   47.0569  129.6304 C   0  0  0  0  0  0  0  0  0  0  0  0
    6.5011   46.2981  130.0352 C   0  0  0  0  0  0  0  0  0  0  0  0
    7.5635   46.4138  128.9657 C   0  0  0  0  0  0  0  0  0  0  0  0
    7.9562   47.8469  128.8012 C   0  0  0  0  0  0  0  0  0  0  0  0
 13 14  1  0  0  0
 14 15  2  0  0  0
 15 16  1  0  0  0
 16 17  2  0  0  0
 17 18  1  0  0  0
 18 19  2  0  0  0
 17  1  1  0  0  0
  1  2  1  0  0  0
  2  3  1  0  0  0
  3  4  2  0  0  0
  4  5  1  0  0  0
  5  6  1  0  0  0
  5  7  2  0  0  0
  7  8  1  0  0  0
  8  9  2  0  0  0
  9 10  1  0  0  0
 10 11  1  0  0  0
 11 21  1  0  0  0
 21 22  2  0  0  0
 22 23  1  0  0  0
 23 24  2  0  0  0
 24 27  1  0  0  0
 27 28  1  0  0  0
 28 29  1  0  0  0
 29 30  1  0  0  0
 30 31  1  0  0  0
 31 32  1  0  0  0
 32 33  1  0  0  0
 33 34  1  0  0  0
 34 35  1  0  0  0
 24 25  1  0  0  0
 25 26  2  0  0  0
 19 14  1  0  0  0
 11  1  1  0  0  0
 26 21  1  0  0  0
  9  3  1  0  0  0
 35 30  1  0  0  0
 13 20  1  0  0  0
  6 12  1  0  0  0
M  END
> <minimizedAffinity>
8.53479

> <CNNscore>
0.2701889575

> <CNNaffinity>
7.3913016319

> <CNN_VS>
1.9970481396

> <CNNaffinity_variance>
0.3136418760

$$$$
[H]Oc1c([H])c([H])c([C@@]2([H])Oc3c([H])c(O[H])c([H])c([H])c3O[C@@]2([H])c2c([H])c([H])c(OC([H])([H])[C@@]([H])(N3C([H])([H])C([H])([H])C([H])([H])C([H])([H])C3([H])[H])C([H])([H])[H])c([H])c2[H])c([H])c1[H]


 36 40  0  0  0  0  0  0  0  0999 V2000
    8.5975   44.7233  131.0809 C   0  0  0  0  0  0  0  0  0  0  0  0
    8.4470   43.2840  131.0038 O   0  0  0  0  0  0  0  0  0  0  0  0
    8.9601   42.6638  129.8559 C   0  0  0  0  0  0  0  0  0  0  0  0
    9.1806   41.2827  129.8498 C   0  0  0  0  0  0  0  0  0  0  0  0
    9.6837   40.6305  128.7448 C   0  0  0  0  0  0  0  0  0  0  0  0
    9.9720   41.3821  127.6206 C   0  0  0  0  0  0  0  0  0  0  0  0
   10.4858   40.7277  126.4854 O   0  0  0  0  0  0  0  0  0  0  0  0
    9.7759   42.7398  127.5699 C   0  0  0  0  0  0  0  0  0  0  0  0
    9.2623   43.3562  128.7188 C   0  0  0  0  0  0  0  0  0  0  0  0
    9.0492   44.7438  128.7021 O   0  0  0  0  0  0  0  0  0  0  0  0
    8.2355   45.2461  129.7635 C   0  0  0  0  0  0  0  0  0  0  0  0
   10.6371   39.7372  126.4993 H   0  0  0  0  0  0  0  0  0  0  0  0
    7.7884   46.6166  129.6238 C   0  0  0  0  0  0  0  0  0  0  0  0
    8.7009   47.6805  129.5908 C   0  0  0  0  0  0  0  0  0  0  0  0
    8.2829   48.9908  129.4791 C   0  0  0  0  0  0  0  0  0  0  0  0
    6.9375   49.2772  129.3968 C   0  0  0  0  0  0  0  0  0  0  0  0
    6.4825   50.6034  129.2816 O   0  0  0  0  0  0  0  0  0  0  0  0
    6.0313   48.2486  129.4277 C   0  0  0  0  0  0  0  0  0  0  0  0
    6.4753   46.9682  129.5388 C   0  0  0  0  0  0  0  0  0  0  0  0
    6.2935   51.0947  130.1449 H   0  0  0  0  0  0  0  0  0  0  0  0
   12.0913   45.5680  133.3755 C   0  0  0  0  0  0  0  0  0  0  0  0
   11.0942   44.7188  133.7915 C   0  0  0  0  0  0  0  0  0  0  0  0
    9.9979   44.4897  133.0155 C   0  0  0  0  0  0  0  0  0  0  0  0
    9.8159   45.0975  131.7547 C   0  0  0  0  0  0  0  0  0  0  0  0
   10.8085   45.9395  131.3416 C   0  0  0  0  0  0  0  0  0  0  0  0
   11.9188   46.1605  132.1497 C   0  0  0  0  0  0  0  0  0  0  0  0
   13.2308   45.8439  134.1199 O   0  0  0  0  0  0  0  0  0  0  0  0
   13.2921   46.6861  135.2348 C   0  0  0  0  0  0  0  0  0  0  0  0
   12.6925   48.9348  135.9979 C   0  0  0  0  0  0  0  0  0  0  0  0
   12.5457   47.9522  134.8864 C   0  0  0  0  0  0  0  0  0  0  0  0
   11.1838   47.6543  134.5149 N   0  0  0  0  0  0  0  0  0  0  0  0
   10.5547   48.8312  133.8834 C   0  0  0  0  0  0  0  0  0  0  0  0
    9.2719   48.2844  133.2460 C   0  0  0  0  0  0  0  0  0  0  0  0
    8.3438   47.7441  134.2912 C   0  0  0  0  0  0  0  0  0  0  0  0
    9.0616   46.7756  135.2049 C   0  0  0  0  0  0  0  0  0  0  0  0
   10.3491   47.4025  135.6897 C   0  0  0  0  0  0  0  0  0  0  0  0
 29 30  1  0  0  0
 30 28  1  0  0  0
 28 27  1  0  0  0
 27 21  1  0  0  0
 21 22  2  0  0  0
 22 23  1  0  0  0
 23 24  2  0  0  0
 24 25  1  0  0  0
 25 26  2  0  0  0
 24  1  1  0  0  0
  1  2  1  0  0  0
  2  3  1  0  0  0
  3  4  2  0  0  0
  4  5  1  0  0  0
  5  6  2  0  0  0
  6  7  1  0  0  0
  6  8  1  0  0  0
  8  9  2  0  0  0
  9 10  1  0  0  0
 10 11  1  0  0  0
 11 13  1  0  0  0
 13 14  2  0  0  0
 14 15  1  0  0  0
 15 16  2  0  0  0
 16 17  1  0  0  0
 16 18  1  0  0  0
 18 19  2  0  0  0
 30 31  1  0  0  0
 31 32  1  0  0  0
 32 33  1  0  0  0
 33 34  1  0  0  0
 34 35  1  0  0  0
 35 36  1  0  0  0
 26 21  1  0  0  0
 11  1  1  0  0  0
 19 13  1  0  0  0
 36 31  1  0  0  0
  9  3  1  0  0  0
  7 12  1  0  0  0
 17 20  1  0  0  0
M  END
> <minimizedAffinity>
13.88515

> <CNNscore>
0.3657310307

> <CNNaffinity>
7.5525450706

> <CNN_VS>
2.7622001171

> <CNNaffinity_variance>
0.5416127443

$$$$
[H]Oc1c([H])c([H])c([C@@]2([H])Oc3c([H])c(O[H])c([H])c([H])c3O[C@@]2([H])c2c([H])c([H])c(OC([H])([H])[C@@]([H])(N3C([H])([H])C([H])([H])C([H])([H])C([H])([H])C3([H])[H])C([H])([H])[H])c([H])c2[H])c([H])c1[H]


 36 40  0  0  0  0  0  0  0  0999 V2000
    7.6373   46.4933  131.3165 C   0  0  0  0  0  0  0  0  0  0  0  0
    7.3699   45.0742  131.1949 O   0  0  0  0  0  0  0  0  0  0  0  0
    8.1102   44.3807  130.2271 C   0  0  0  0  0  0  0  0  0  0  0  0
    8.1845   42.9848  130.2751 C   0  0  0  0  0  0  0  0  0  0  0  0
    8.9004   42.2614  129.3458 C   0  0  0  0  0  0  0  0  0  0  0  0
    9.5565   42.9553  128.3458 C   0  0  0  0  0  0  0  0  0  0  0  0
   10.2906   42.2279  127.3903 O   0  0  0  0  0  0  0  0  0  0  0  0
    9.5186   44.3240  128.2497 C   0  0  0  0  0  0  0  0  0  0  0  0
    8.7772   45.0139  129.2183 C   0  0  0  0  0  0  0  0  0  0  0  0
    8.7167   46.4149  129.1505 O   0  0  0  0  0  0  0  0  0  0  0  0
    7.7004   47.0186  129.9527 C   0  0  0  0  0  0  0  0  0  0  0  0
   10.3325   41.2279  127.4404 H   0  0  0  0  0  0  0  0  0  0  0  0
    7.4475   48.4226  129.7027 C   0  0  0  0  0  0  0  0  0  0  0  0
    7.4375   48.9399  128.3997 C   0  0  0  0  0  0  0  0  0  0  0  0
    7.2184   50.2798  128.1534 C   0  0  0  0  0  0  0  0  0  0  0  0
    7.0023   51.1443  129.2045 C   0  0  0  0  0  0  0  0  0  0  0  0
    6.7756   52.5151  128.9834 O   0  0  0  0  0  0  0  0  0  0  0  0
    7.0091   50.6551  130.4854 C   0  0  0  0  0  0  0  0  0  0  0  0
    7.2281   49.3296  130.6948 C   0  0  0  0  0  0  0  0  0  0  0  0
    7.5910   53.1129  128.9675 H   0  0  0  0  0  0  0  0  0  0  0  0
   10.8712   47.4752  133.9172 C   0  0  0  0  0  0  0  0  0  0  0  0
   10.8622   47.7593  132.5727 C   0  0  0  0  0  0  0  0  0  0  0  0
    9.8004   47.4181  131.7900 C   0  0  0  0  0  0  0  0  0  0  0  0
    8.6585   46.7622  132.2980 C   0  0  0  0  0  0  0  0  0  0  0  0
    8.6679   46.4822  133.6346 C   0  0  0  0  0  0  0  0  0  0  0  0
    9.7624   46.8382  134.4155 C   0  0  0  0  0  0  0  0  0  0  0  0
   11.9221   47.7949  134.7668 O   0  0  0  0  0  0  0  0  0  0  0  0
   12.8682   46.8950  135.2679 C   0  0  0  0  0  0  0  0  0  0  0  0
   13.8709   46.8105  133.0350 C   0  0  0  0  0  0  0  0  0  0  0  0
   13.2785   45.9904  134.1300 C   0  0  0  0  0  0  0  0  0  0  0  0
   12.1797   45.1455  133.7297 N   0  0  0  0  0  0  0  0  0  0  0  0
   12.0537   43.9970  134.6489 C   0  0  0  0  0  0  0  0  0  0  0  0
   10.6818   43.3944  134.3238 C   0  0  0  0  0  0  0  0  0  0  0  0
   10.6401   42.8902  132.9132 C   0  0  0  0  0  0  0  0  0  0  0  0
   11.1135   43.9508  131.9442 C   0  0  0  0  0  0  0  0  0  0  0  0
   12.4260   44.5239  132.4285 C   0  0  0  0  0  0  0  0  0  0  0  0
 29 30  1  0  0  0
 30 28  1  0  0  0
 28 27  1  0  0  0
 27 21  1  0  0  0
 21 22  2  0  0  0
 22 23  1  0  0  0
 23 24  2  0  0  0
 24 25  1  0  0  0
 25 26  2  0  0  0
 24  1  1  0  0  0
  1  2  1  0  0  0
  2  3  1  0  0  0
  3  4  2  0  0  0
  4  5  1  0  0  0
  5  6  2  0  0  0
  6  7  1  0  0  0
  6  8  1  0  0  0
  8  9  2  0  0  0
  9 10  1  0  0  0
 10 11  1  0  0  0
 11 13  1  0  0  0
 13 14  2  0  0  0
 14 15  1  0  0  0
 15 16  2  0  0  0
 16 17  1  0  0  0
 16 18  1  0  0  0
 18 19  2  0  0  0
 30 31  1  0  0  0
 31 32  1  0  0  0
 32 33  1  0  0  0
 33 34  1  0  0  0
 34 35  1  0  0  0
 35 36  1  0  0  0
 26 21  1  0  0  0
 11  1  1  0  0  0
 19 13  1  0  0  0
 36 31  1  0  0  0
  9  3  1  0  0  0
  7 12  1  0  0  0
 17 20  1  0  0  0
M  END
> <minimizedAffinity>
3.56811

> <CNNscore>
0.3261258304

> <CNNaffinity>
7.4652771950

> <CNN_VS>
2.4346196651

> <CNNaffinity_variance>
0.6474706531

$$$$
[H]Oc1c([H])c([H])c([C@@]2([H])Oc3c([H])c(O[H])c([H])c([H])c3O[C@@]2([H])c2c([H])c([H])c(OC([H])([H])[C@@]([H])(N3C([H])([H])C([H])([H])C([H])([H])C([H])([H])C3([H])[H])C([H])([H])[H])c([H])c2[H])c([H])c1[H]


 36 40  0  0  0  0  0  0  0  0999 V2000
    8.8488   45.2062  131.6037 C   0  0  0  0  0  0  0  0  0  0  0  0
    8.9744   44.8179  132.9942 O   0  0  0  0  0  0  0  0  0  0  0  0
   10.2793   44.6815  133.4883 C   0  0  0  0  0  0  0  0  0  0  0  0
   10.5030   44.6624  134.8689 C   0  0  0  0  0  0  0  0  0  0  0  0
   11.7680   44.5308  135.3998 C   0  0  0  0  0  0  0  0  0  0  0  0
   12.8324   44.4158  134.5247 C   0  0  0  0  0  0  0  0  0  0  0  0
   14.1293   44.2803  135.0545 O   0  0  0  0  0  0  0  0  0  0  0  0
   12.6721   44.4284  133.1615 C   0  0  0  0  0  0  0  0  0  0  0  0
   11.3665   44.5643  132.6711 C   0  0  0  0  0  0  0  0  0  0  0  0
   11.1658   44.5810  131.2817 O   0  0  0  0  0  0  0  0  0  0  0  0
    9.8132   44.3948  130.8611 C   0  0  0  0  0  0  0  0  0  0  0  0
   14.2705   44.2684  136.0465 H   0  0  0  0  0  0  0  0  0  0  0  0
    9.6185   44.1479  129.4473 C   0  0  0  0  0  0  0  0  0  0  0  0
   10.5798   44.5321  128.5018 C   0  0  0  0  0  0  0  0  0  0  0  0
   10.3934   44.3198  127.1512 C   0  0  0  0  0  0  0  0  0  0  0  0
    9.2383   43.7158  126.7045 C   0  0  0  0  0  0  0  0  0  0  0  0
    9.0215   43.4861  125.3336 O   0  0  0  0  0  0  0  0  0  0  0  0
    8.2875   43.3338  127.6158 C   0  0  0  0  0  0  0  0  0  0  0  0
    8.5011   43.5573  128.9398 C   0  0  0  0  0  0  0  0  0  0  0  0
    8.5558   44.2212  124.8186 H   0  0  0  0  0  0  0  0  0  0  0  0
    8.4495   49.3714  130.7810 C   0  0  0  0  0  0  0  0  0  0  0  0
    8.1670   48.3845  129.8675 C   0  0  0  0  0  0  0  0  0  0  0  0
    8.3167   47.0684  130.1868 C   0  0  0  0  0  0  0  0  0  0  0  0
    8.7634   46.6376  131.4546 C   0  0  0  0  0  0  0  0  0  0  0  0
    9.0418   47.6194  132.3621 C   0  0  0  0  0  0  0  0  0  0  0  0
    8.8833   48.9570  132.0153 C   0  0  0  0  0  0  0  0  0  0  0  0
    8.3190   50.7285  130.5164 O   0  0  0  0  0  0  0  0  0  0  0  0
    7.1187   51.3958  130.2518 C   0  0  0  0  0  0  0  0  0  0  0  0
    7.5673   49.9519  128.3251 C   0  0  0  0  0  0  0  0  0  0  0  0
    6.7293   51.0779  128.8275 C   0  0  0  0  0  0  0  0  0  0  0  0
    6.7606   52.2686  128.0134 N   0  0  0  0  0  0  0  0  0  0  0  0
    7.7297   52.1114  126.9107 C   0  0  0  0  0  0  0  0  0  0  0  0
    7.4168   53.2705  125.9571 C   0  0  0  0  0  0  0  0  0  0  0  0
    7.6553   54.5910  126.6243 C   0  0  0  0  0  0  0  0  0  0  0  0
    6.9484   54.6589  127.9599 C   0  0  0  0  0  0  0  0  0  0  0  0
    7.2692   53.4181  128.7618 C   0  0  0  0  0  0  0  0  0  0  0  0
 29 30  1  0  0  0
 30 28  1  0  0  0
 28 27  1  0  0  0
 27 21  1  0  0  0
 21 22  2  0  0  0
 22 23  1  0  0  0
 23 24  2  0  0  0
 24 25  1  0  0  0
 25 26  2  0  0  0
 24  1  1  0  0  0
  1  2  1  0  0  0
  2  3  1  0  0  0
  3  4  2  0  0  0
  4  5  1  0  0  0
  5  6  2  0  0  0
  6  7  1  0  0  0
  6  8  1  0  0  0
  8  9  2  0  0  0
  9 10  1  0  0  0
 10 11  1  0  0  0
 11 13  1  0  0  0
 13 14  2  0  0  0
 14 15  1  0  0  0
 15 16  2  0  0  0
 16 17  1  0  0  0
 16 18  1  0  0  0
 18 19  2  0  0  0
 30 31  1  0  0  0
 31 32  1  0  0  0
 32 33  1  0  0  0
 33 34  1  0  0  0
 34 35  1  0  0  0
 35 36  1  0  0  0
 26 21  1  0  0  0
 11  1  1  0  0  0
 19 13  1  0  0  0
 36 31  1  0  0  0
  9  3  1  0  0  0
  7 12  1  0  0  0
 17 20  1  0  0  0
M  END
> <minimizedAffinity>
15.41165

> <CNNscore>
0.2958454192

> <CNNaffinity>
7.2770905495

> <CNN_VS>
2.1528940201

> <CNNaffinity_variance>
1.5921566486

$$$$
[H]Oc1c([H])c([H])c([C@@]2([H])Oc3c([H])c(O[H])c([H])c([H])c3O[C@@]2([H])c2c([H])c([H])c(OC([H])([H])[C@@]([H])(N3C([H])([H])C([H])([H])C([H])([H])C([H])([H])C3([H])[H])C([H])([H])[H])c([H])c2[H])c([H])c1[H]


 36 40  0  0  0  0  0  0  0  0999 V2000
    9.7826   47.3216  129.3868 C   0  0  0  0  0  0  0  0  0  0  0  0
    9.4523   48.4870  130.1823 O   0  0  0  0  0  0  0  0  0  0  0  0
    8.1423   48.9721  130.0639 C   0  0  0  0  0  0  0  0  0  0  0  0
    7.6331   49.8461  131.0299 C   0  0  0  0  0  0  0  0  0  0  0  0
    6.3516   50.3477  130.9549 C   0  0  0  0  0  0  0  0  0  0  0  0
    5.5636   49.9630  129.8857 C   0  0  0  0  0  0  0  0  0  0  0  0
    4.2532   50.4688  129.7975 O   0  0  0  0  0  0  0  0  0  0  0  0
    6.0106   49.1084  128.9089 C   0  0  0  0  0  0  0  0  0  0  0  0
    7.3206   48.6260  129.0301 C   0  0  0  0  0  0  0  0  0  0  0  0
    7.8106   47.7498  128.0487 O   0  0  0  0  0  0  0  0  0  0  0  0
    9.2267   47.5612  128.0551 C   0  0  0  0  0  0  0  0  0  0  0  0
    3.9053   51.0942  130.4989 H   0  0  0  0  0  0  0  0  0  0  0  0
    9.7793   46.8782  126.9037 C   0  0  0  0  0  0  0  0  0  0  0  0
   10.3666   45.6106  127.0215 C   0  0  0  0  0  0  0  0  0  0  0  0
   10.9144   44.9616  125.9339 C   0  0  0  0  0  0  0  0  0  0  0  0
   10.8913   45.5615  124.6937 C   0  0  0  0  0  0  0  0  0  0  0  0
   11.4415   44.9233  123.5671 O   0  0  0  0  0  0  0  0  0  0  0  0
   10.3209   46.8014  124.5607 C   0  0  0  0  0  0  0  0  0  0  0  0
    9.7899   47.4147  125.6519 C   0  0  0  0  0  0  0  0  0  0  0  0
   12.4177   45.1039  123.3752 H   0  0  0  0  0  0  0  0  0  0  0  0
    8.7188   43.8332  131.5970 C   0  0  0  0  0  0  0  0  0  0  0  0
    7.8673   44.8914  131.3885 C   0  0  0  0  0  0  0  0  0  0  0  0
    8.2646   45.9824  130.6756 C   0  0  0  0  0  0  0  0  0  0  0  0
    9.5540   46.0972  130.1128 C   0  0  0  0  0  0  0  0  0  0  0  0
   10.3984   45.0439  130.3190 C   0  0  0  0  0  0  0  0  0  0  0  0
    9.9732   43.9401  131.0507 C   0  0  0  0  0  0  0  0  0  0  0  0
    8.3747   42.6953  132.3150 O   0  0  0  0  0  0  0  0  0  0  0  0
    8.7795   42.4022  133.6212 C   0  0  0  0  0  0  0  0  0  0  0  0
    7.8262   44.5824  134.2010 C   0  0  0  0  0  0  0  0  0  0  0  0
    9.0335   43.7162  134.3213 C   0  0  0  0  0  0  0  0  0  0  0  0
   10.2596   44.3144  133.8518 N   0  0  0  0  0  0  0  0  0  0  0  0
   11.4229   43.6780  134.5010 C   0  0  0  0  0  0  0  0  0  0  0  0
   12.6276   44.1535  133.6802 C   0  0  0  0  0  0  0  0  0  0  0  0
   12.7805   45.6416  133.7680 C   0  0  0  0  0  0  0  0  0  0  0  0
   11.4778   46.3402  133.4470 C   0  0  0  0  0  0  0  0  0  0  0  0
   10.3615   45.7173  134.2541 C   0  0  0  0  0  0  0  0  0  0  0  0
 29 30  1  0  0  0
 30 28  1  0  0  0
 28 27  1  0  0  0
 27 21  1  0  0  0
 21 22  2  0  0  0
 22 23  1  0  0  0
 23 24  2  0  0  0
 24 25  1  0  0  0
 25 26  2  0  0  0
 24  1  1  0  0  0
  1  2  1  0  0  0
  2  3  1  0  0  0
  3  4  2  0  0  0
  4  5  1  0  0  0
  5  6  2  0  0  0
  6  7  1  0  0  0
  6  8  1  0  0  0
  8  9  2  0  0  0
  9 10  1  0  0  0
 10 11  1  0  0  0
 11 13  1  0  0  0
 13 14  2  0  0  0
 14 15  1  0  0  0
 15 16  2  0  0  0
 16 17  1  0  0  0
 16 18  1  0  0  0
 18 19  2  0  0  0
 30 31  1  0  0  0
 31 32  1  0  0  0
 32 33  1  0  0  0
 33 34  1  0  0  0
 34 35  1  0  0  0
 35 36  1  0  0  0
 26 21  1  0  0  0
 11  1  1  0  0  0
 19 13  1  0  0  0
 36 31  1  0  0  0
  9  3  1  0  0  0
  7 12  1  0  0  0
 17 20  1  0  0  0
M  END
> <minimizedAffinity>
21.43223

> <CNNscore>
0.2920475304

> <CNNaffinity>
7.2850952148

> <CNN_VS>
2.1275939941

> <CNNaffinity_variance>
0.4589893818

$$$$
[H]Oc1c([H])c([H])c([C@@]2([H])Oc3c([H])c(O[H])c([H])c([H])c3O[C@@]2([H])c2c([H])c([H])c(OC([H])([H])[C@@]([H])(N3C([H])([H])C([H])([H])C([H])([H])C([H])([H])C3([H])[H])C([H])([H])[H])c([H])c2[H])c([H])c1[H]


 36 40  0  0  0  0  0  0  0  0999 V2000
    9.6257   47.7228  130.1205 C   0  0  0  0  0  0  0  0  0  0  0  0
    9.2683   49.1078  129.8879 O   0  0  0  0  0  0  0  0  0  0  0  0
    7.9021   49.3819  129.7332 C   0  0  0  0  0  0  0  0  0  0  0  0
    7.4363   50.6946  129.8598 C   0  0  0  0  0  0  0  0  0  0  0  0
    6.1025   51.0109  129.7165 C   0  0  0  0  0  0  0  0  0  0  0  0
    5.2166   49.9859  129.4399 C   0  0  0  0  0  0  0  0  0  0  0  0
    3.8519   50.2962  129.2907 O   0  0  0  0  0  0  0  0  0  0  0  0
    5.6172   48.6800  129.3051 C   0  0  0  0  0  0  0  0  0  0  0  0
    6.9835   48.4098  129.4597 C   0  0  0  0  0  0  0  0  0  0  0  0
    7.4284   47.0847  129.3284 O   0  0  0  0  0  0  0  0  0  0  0  0
    8.8403   46.9305  129.1744 C   0  0  0  0  0  0  0  0  0  0  0  0
    3.5363   51.2426  129.3847 H   0  0  0  0  0  0  0  0  0  0  0  0
    9.2935   45.6131  128.7784 C   0  0  0  0  0  0  0  0  0  0  0  0
   10.5132   45.4327  128.1110 C   0  0  0  0  0  0  0  0  0  0  0  0
   10.9430   44.1839  127.7114 C   0  0  0  0  0  0  0  0  0  0  0  0
   10.1649   43.0759  127.9675 C   0  0  0  0  0  0  0  0  0  0  0  0
   10.5779   41.7905  127.5723 O   0  0  0  0  0  0  0  0  0  0  0  0
    8.9688   43.2344  128.6192 C   0  0  0  0  0  0  0  0  0  0  0  0
    8.5734   44.4784  128.9998 C   0  0  0  0  0  0  0  0  0  0  0  0
   10.2927   41.4855  126.6514 H   0  0  0  0  0  0  0  0  0  0  0  0
    9.4827   46.5493  134.2178 C   0  0  0  0  0  0  0  0  0  0  0  0
    8.6138   46.0819  133.2613 C   0  0  0  0  0  0  0  0  0  0  0  0
    8.7062   46.4957  131.9664 C   0  0  0  0  0  0  0  0  0  0  0  0
    9.6832   47.4152  131.5279 C   0  0  0  0  0  0  0  0  0  0  0  0
   10.5473   47.8773  132.4791 C   0  0  0  0  0  0  0  0  0  0  0  0
   10.4348   47.4429  133.7956 C   0  0  0  0  0  0  0  0  0  0  0  0
    9.4395   46.1678  135.5525 O   0  0  0  0  0  0  0  0  0  0  0  0
   10.4334   45.4530  136.2287 C   0  0  0  0  0  0  0  0  0  0  0  0
   11.5127   43.2565  136.3234 C   0  0  0  0  0  0  0  0  0  0  0  0
   10.5615   44.1080  135.5535 C   0  0  0  0  0  0  0  0  0  0  0  0
   10.8838   44.2685  134.1564 N   0  0  0  0  0  0  0  0  0  0  0  0
   10.5047   43.0587  133.3998 C   0  0  0  0  0  0  0  0  0  0  0  0
   10.5787   43.4872  131.9295 C   0  0  0  0  0  0  0  0  0  0  0  0
   11.9777   43.8720  131.5545 C   0  0  0  0  0  0  0  0  0  0  0  0
   12.5464   44.8719  132.5368 C   0  0  0  0  0  0  0  0  0  0  0  0
   12.3279   44.3713  133.9465 C   0  0  0  0  0  0  0  0  0  0  0  0
 29 30  1  0  0  0
 30 28  1  0  0  0
 28 27  1  0  0  0
 27 21  1  0  0  0
 21 22  2  0  0  0
 22 23  1  0  0  0
 23 24  2  0  0  0
 24 25  1  0  0  0
 25 26  2  0  0  0
 24  1  1  0  0  0
  1  2  1  0  0  0
  2  3  1  0  0  0
  3  4  2  0  0  0
  4  5  1  0  0  0
  5  6  2  0  0  0
  6  7  1  0  0  0
  6  8  1  0  0  0
  8  9  2  0  0  0
  9 10  1  0  0  0
 10 11  1  0  0  0
 11 13  1  0  0  0
 13 14  2  0  0  0
 14 15  1  0  0  0
 15 16  2  0  0  0
 16 17  1  0  0  0
 16 18  1  0  0  0
 18 19  2  0  0  0
 30 31  1  0  0  0
 31 32  1  0  0  0
 32 33  1  0  0  0
 33 34  1  0  0  0
 34 35  1  0  0  0
 35 36  1  0  0  0
 26 21  1  0  0  0
 11  1  1  0  0  0
 19 13  1  0  0  0
 36 31  1  0  0  0
  9  3  1  0  0  0
  7 12  1  0  0  0
 17 20  1  0  0  0
M  END
> <minimizedAffinity>
-2.21902

> <CNNscore>
0.2866647840

> <CNNaffinity>
7.6219344139

> <CNN_VS>
2.1849400997

> <CNNaffinity_variance>
0.1692483127

$$$$
[H]Oc1c([H])c([H])c([C@@]2([H])Oc3c([H])c(O[H])c([H])c([H])c3O[C@@]2([H])c2c([H])c([H])c(OC([H])([H])[C@@]([H])(N3C([H])([H])C([H])([H])C([H])([H])C([H])([H])C3([H])[H])C([H])([H])[H])c([H])c2[H])c([H])c1[H]


 36 40  0  0  0  0  0  0  0  0999 V2000
    9.6452   46.9868  129.2904 C   0  0  0  0  0  0  0  0  0  0  0  0
    9.2171   48.2347  128.6908 O   0  0  0  0  0  0  0  0  0  0  0  0
    7.8834   48.6070  128.9102 C   0  0  0  0  0  0  0  0  0  0  0  0
    7.4827   49.9279  128.6847 C   0  0  0  0  0  0  0  0  0  0  0  0
    6.1829   50.3392  128.8873 C   0  0  0  0  0  0  0  0  0  0  0  0
    5.2649   49.4030  129.3262 C   0  0  0  0  0  0  0  0  0  0  0  0
    3.9342   49.8105  129.5362 O   0  0  0  0  0  0  0  0  0  0  0  0
    5.6017   48.0937  129.5638 C   0  0  0  0  0  0  0  0  0  0  0  0
    6.9355   47.7250  129.3429 C   0  0  0  0  0  0  0  0  0  0  0  0
    7.3151   46.3936  129.5759 O   0  0  0  0  0  0  0  0  0  0  0  0
    8.5805   46.0182  129.0293 C   0  0  0  0  0  0  0  0  0  0  0  0
    3.6652   50.7612  129.3692 H   0  0  0  0  0  0  0  0  0  0  0  0
    8.8733   44.5998  129.0276 C   0  0  0  0  0  0  0  0  0  0  0  0
    8.4037   43.7581  130.0457 C   0  0  0  0  0  0  0  0  0  0  0  0
    8.6953   42.4095  130.0635 C   0  0  0  0  0  0  0  0  0  0  0  0
    9.4667   41.8610  129.0621 C   0  0  0  0  0  0  0  0  0  0  0  0
    9.7794   40.4894  129.0541 O   0  0  0  0  0  0  0  0  0  0  0  0
    9.9345   42.6701  128.0586 C   0  0  0  0  0  0  0  0  0  0  0  0
    9.6296   43.9951  128.0699 C   0  0  0  0  0  0  0  0  0  0  0  0
   10.6262   40.2145  129.5334 H   0  0  0  0  0  0  0  0  0  0  0  0
   10.9432   47.7820  133.2739 C   0  0  0  0  0  0  0  0  0  0  0  0
    9.7427   48.2144  132.7638 C   0  0  0  0  0  0  0  0  0  0  0  0
    9.3825   47.9320  131.4804 C   0  0  0  0  0  0  0  0  0  0  0  0
   10.2030   47.1893  130.6043 C   0  0  0  0  0  0  0  0  0  0  0  0
   11.3948   46.7585  131.1132 C   0  0  0  0  0  0  0  0  0  0  0  0
   11.7436   47.0587  132.4257 C   0  0  0  0  0  0  0  0  0  0  0  0
   11.3679   48.0382  134.5710 O   0  0  0  0  0  0  0  0  0  0  0  0
   11.8399   47.0838  135.4779 C   0  0  0  0  0  0  0  0  0  0  0  0
   12.6259   45.3347  133.9543 C   0  0  0  0  0  0  0  0  0  0  0  0
   11.5388   45.7219  134.8982 C   0  0  0  0  0  0  0  0  0  0  0  0
   10.2091   45.6891  134.3395 N   0  0  0  0  0  0  0  0  0  0  0  0
    9.2005   45.8597  135.4041 C   0  0  0  0  0  0  0  0  0  0  0  0
    7.8947   46.1452  134.6529 C   0  0  0  0  0  0  0  0  0  0  0  0
    7.5025   44.9773  133.7997 C   0  0  0  0  0  0  0  0  0  0  0  0
    8.6543   44.5340  132.9251 C   0  0  0  0  0  0  0  0  0  0  0  0
    9.8968   44.3773  133.7720 C   0  0  0  0  0  0  0  0  0  0  0  0
 29 30  1  0  0  0
 30 28  1  0  0  0
 28 27  1  0  0  0
 27 21  1  0  0  0
 21 22  2  0  0  0
 22 23  1  0  0  0
 23 24  2  0  0  0
 24 25  1  0  0  0
 25 26  2  0  0  0
 24  1  1  0  0  0
  1  2  1  0  0  0
  2  3  1  0  0  0
  3  4  2  0  0  0
  4  5  1  0  0  0
  5  6  2  0  0  0
  6  7  1  0  0  0
  6  8  1  0  0  0
  8  9  2  0  0  0
  9 10  1  0  0  0
 10 11  1  0  0  0
 11 13  1  0  0  0
 13 14  2  0  0  0
 14 15  1  0  0  0
 15 16  2  0  0  0
 16 17  1  0  0  0
 16 18  1  0  0  0
 18 19  2  0  0  0
 30 31  1  0  0  0
 31 32  1  0  0  0
 32 33  1  0  0  0
 33 34  1  0  0  0
 34 35  1  0  0  0
 35 36  1  0  0  0
 26 21  1  0  0  0
 11  1  1  0  0  0
 19 13  1  0  0  0
 36 31  1  0  0  0
  9  3  1  0  0  0
  7 12  1  0  0  0
 17 20  1  0  0  0
M  END
> <minimizedAffinity>
5.32319

> <CNNscore>
0.2552837431

> <CNNaffinity>
7.1659913063

> <CNN_VS>
1.8293610811

> <CNNaffinity_variance>
0.1282582432

$$$$
[H]Oc1c([H])c([H])c([C@@]2([H])Oc3c([H])c(O[H])c([H])c([H])c3O[C@@]2([H])c2c([H])c([H])c(OC([H])([H])[C@@]([H])(N3C([H])([H])C([H])([H])C([H])([H])C([H])([H])C3([H])[H])C([H])([H])[H])c([H])c2[H])c([H])c1[H]


 36 40  0  0  0  0  0  0  0  0999 V2000
    7.3351   45.0344  130.5414 C   0  0  0  0  0  0  0  0  0  0  0  0
    7.7983   43.7641  130.0201 O   0  0  0  0  0  0  0  0  0  0  0  0
    8.9836   43.7917  129.2718 C   0  0  0  0  0  0  0  0  0  0  0  0
    9.6864   42.6057  129.0360 C   0  0  0  0  0  0  0  0  0  0  0  0
   10.8557   42.5849  128.3067 C   0  0  0  0  0  0  0  0  0  0  0  0
   11.3300   43.7821  127.8030 C   0  0  0  0  0  0  0  0  0  0  0  0
   12.5228   43.7741  127.0560 O   0  0  0  0  0  0  0  0  0  0  0  0
   10.6822   44.9757  128.0031 C   0  0  0  0  0  0  0  0  0  0  0  0
    9.4975   44.9442  128.7509 C   0  0  0  0  0  0  0  0  0  0  0  0
    8.8089   46.1469  128.9751 O   0  0  0  0  0  0  0  0  0  0  0  0
    7.4699   46.0005  129.4513 C   0  0  0  0  0  0  0  0  0  0  0  0
   13.0128   42.9146  126.8970 H   0  0  0  0  0  0  0  0  0  0  0  0
    6.6596   47.2009  129.4402 C   0  0  0  0  0  0  0  0  0  0  0  0
    5.2604   47.1344  129.3809 C   0  0  0  0  0  0  0  0  0  0  0  0
    4.4814   48.2728  129.3487 C   0  0  0  0  0  0  0  0  0  0  0  0
    5.0789   49.5142  129.3750 C   0  0  0  0  0  0  0  0  0  0  0  0
    4.3099   50.6919  129.3439 O   0  0  0  0  0  0  0  0  0  0  0  0
    6.4464   49.5974  129.4328 C   0  0  0  0  0  0  0  0  0  0  0  0
    7.1860   48.4568  129.4631 C   0  0  0  0  0  0  0  0  0  0  0  0
    4.1006   51.0729  128.4310 H   0  0  0  0  0  0  0  0  0  0  0  0
    9.1306   45.4899  134.3826 C   0  0  0  0  0  0  0  0  0  0  0  0
    9.5518   44.5735  133.4491 C   0  0  0  0  0  0  0  0  0  0  0  0
    8.9364   44.4715  132.2378 C   0  0  0  0  0  0  0  0  0  0  0  0
    7.8448   45.2856  131.8664 C   0  0  0  0  0  0  0  0  0  0  0  0
    7.4285   46.1972  132.7942 C   0  0  0  0  0  0  0  0  0  0  0  0
    8.0701   46.2841  134.0252 C   0  0  0  0  0  0  0  0  0  0  0  0
    9.7142   45.6414  135.6336 O   0  0  0  0  0  0  0  0  0  0  0  0
   10.3896   46.7797  136.0857 C   0  0  0  0  0  0  0  0  0  0  0  0
   12.3172   48.1921  135.5492 C   0  0  0  0  0  0  0  0  0  0  0  0
   11.3575   47.1912  135.0017 C   0  0  0  0  0  0  0  0  0  0  0  0
   10.6477   47.6141  133.8190 N   0  0  0  0  0  0  0  0  0  0  0  0
   11.4525   47.3410  132.6118 C   0  0  0  0  0  0  0  0  0  0  0  0
   10.4687   47.5118  131.4483 C   0  0  0  0  0  0  0  0  0  0  0  0
    9.9601   48.9198  131.3806 C   0  0  0  0  0  0  0  0  0  0  0  0
    9.4374   49.3726  132.7259 C   0  0  0  0  0  0  0  0  0  0  0  0
   10.4634   49.0651  133.7928 C   0  0  0  0  0  0  0  0  0  0  0  0
 29 30  1  0  0  0
 30 28  1  0  0  0
 28 27  1  0  0  0
 27 21  1  0  0  0
 21 22  2  0  0  0
 22 23  1  0  0  0
 23 24  2  0  0  0
 24 25  1  0  0  0
 25 26  2  0  0  0
 24  1  1  0  0  0
  1  2  1  0  0  0
  2  3  1  0  0  0
  3  4  2  0  0  0
  4  5  1  0  0  0
  5  6  2  0  0  0
  6  7  1  0  0  0
  6  8  1  0  0  0
  8  9  2  0  0  0
  9 10  1  0  0  0
 10 11  1  0  0  0
 11 13  1  0  0  0
 13 14  2  0  0  0
 14 15  1  0  0  0
 15 16  2  0  0  0
 16 17  1  0  0  0
 16 18  1  0  0  0
 18 19  2  0  0  0
 30 31  1  0  0  0
 31 32  1  0  0  0
 32 33  1  0  0  0
 33 34  1  0  0  0
 34 35  1  0  0  0
 35 36  1  0  0  0
 26 21  1  0  0  0
 11  1  1  0  0  0
 19 13  1  0  0  0
 36 31  1  0  0  0
  9  3  1  0  0  0
  7 12  1  0  0  0
 17 20  1  0  0  0
M  END
> <minimizedAffinity>
6.79434

> <CNNscore>
0.2315345705

> <CNNaffinity>
7.2315597534

> <CNN_VS>
1.6743561029

> <CNNaffinity_variance>
0.2389247417

$$$$
[H]Oc1c([H])c([H])c([C@@]2([H])Oc3c([H])c(O[H])c([H])c([H])c3O[C@@]2([H])c2c([H])c([H])c(OC([H])([H])[C@@]([H])(N3C([H])([H])C([H])([H])C([H])([H])C([H])([H])C3([H])[H])C([H])([H])[H])c([H])c2[H])c([H])c1[H]


 36 40  0  0  0  0  0  0  0  0999 V2000
    8.4046   48.6272  132.5344 C   0  0  0  0  0  0  0  0  0  0  0  0
    8.1480   49.5281  133.6401 O   0  0  0  0  0  0  0  0  0  0  0  0
    9.0695   50.5685  133.8237 C   0  0  0  0  0  0  0  0  0  0  0  0
    8.7281   51.6699  134.6153 C   0  0  0  0  0  0  0  0  0  0  0  0
    9.6013   52.7158  134.8233 C   0  0  0  0  0  0  0  0  0  0  0  0
   10.8454   52.6543  134.2228 C   0  0  0  0  0  0  0  0  0  0  0  0
   11.7464   53.7159  134.4281 O   0  0  0  0  0  0  0  0  0  0  0  0
   11.2341   51.5987  133.4362 C   0  0  0  0  0  0  0  0  0  0  0  0
   10.3108   50.5603  133.2553 C   0  0  0  0  0  0  0  0  0  0  0  0
   10.6751   49.4647  132.4566 O   0  0  0  0  0  0  0  0  0  0  0  0
    9.8334   48.3169  132.5793 C   0  0  0  0  0  0  0  0  0  0  0  0
   11.4845   54.4969  134.9987 H   0  0  0  0  0  0  0  0  0  0  0  0
   10.3317   47.0992  131.9738 C   0  0  0  0  0  0  0  0  0  0  0  0
   10.1137   45.8483  132.5682 C   0  0  0  0  0  0  0  0  0  0  0  0
   10.6027   44.6852  132.0095 C   0  0  0  0  0  0  0  0  0  0  0  0
   11.3255   44.7379  130.8376 C   0  0  0  0  0  0  0  0  0  0  0  0
   11.8357   43.5684  130.2450 O   0  0  0  0  0  0  0  0  0  0  0  0
   11.5483   45.9533  130.2430 C   0  0  0  0  0  0  0  0  0  0  0  0
   11.0532   47.0812  130.8188 C   0  0  0  0  0  0  0  0  0  0  0  0
   12.7637   43.2841  130.5283 H   0  0  0  0  0  0  0  0  0  0  0  0
    6.0916   49.8069  129.1516 C   0  0  0  0  0  0  0  0  0  0  0  0
    5.5509   49.2588  130.2898 C   0  0  0  0  0  0  0  0  0  0  0  0
    6.3414   48.8978  131.3392 C   0  0  0  0  0  0  0  0  0  0  0  0
    7.7435   49.0599  131.3285 C   0  0  0  0  0  0  0  0  0  0  0  0
    8.2793   49.6065  130.1975 C   0  0  0  0  0  0  0  0  0  0  0  0
    7.4545   49.9671  129.1372 C   0  0  0  0  0  0  0  0  0  0  0  0
    5.3408   50.1934  128.0490 O   0  0  0  0  0  0  0  0  0  0  0  0
    4.8353   51.4765  127.8161 C   0  0  0  0  0  0  0  0  0  0  0  0
    3.0609   50.2284  126.6791 C   0  0  0  0  0  0  0  0  0  0  0  0
    3.3427   51.3463  127.6244 C   0  0  0  0  0  0  0  0  0  0  0  0
    2.7644   52.6151  127.2543 N   0  0  0  0  0  0  0  0  0  0  0  0
    1.2937   52.5079  127.1829 C   0  0  0  0  0  0  0  0  0  0  0  0
    0.8057   53.9602  127.1244 C   0  0  0  0  0  0  0  0  0  0  0  0
    1.3004   54.6409  125.8843 C   0  0  0  0  0  0  0  0  0  0  0  0
    2.7950   54.4664  125.7298 C   0  0  0  0  0  0  0  0  0  0  0  0
    3.1505   53.0067  125.8986 C   0  0  0  0  0  0  0  0  0  0  0  0
 29 30  1  0  0  0
 30 28  1  0  0  0
 28 27  1  0  0  0
 27 21  1  0  0  0
 21 22  2  0  0  0
 22 23  1  0  0  0
 23 24  2  0  0  0
 24 25  1  0  0  0
 25 26  2  0  0  0
 24  1  1  0  0  0
  1  2  1  0  0  0
  2  3  1  0  0  0
  3  4  2  0  0  0
  4  5  1  0  0  0
  5  6  2  0  0  0
  6  7  1  0  0  0
  6  8  1  0  0  0
  8  9  2  0  0  0
  9 10  1  0  0  0
 10 11  1  0  0  0
 11 13  1  0  0  0
 13 14  2  0  0  0
 14 15  1  0  0  0
 15 16  2  0  0  0
 16 17  1  0  0  0
 16 18  1  0  0  0
 18 19  2  0  0  0
 30 31  1  0  0  0
 31 32  1  0  0  0
 32 33  1  0  0  0
 33 34  1  0  0  0
 34 35  1  0  0  0
 35 36  1  0  0  0
 26 21  1  0  0  0
 11  1  1  0  0  0
 19 13  1  0  0  0
 36 31  1  0  0  0
  9  3  1  0  0  0
  7 12  1  0  0  0
 17 20  1  0  0  0
M  END
> <minimizedAffinity>
45.79657

> <CNNscore>
0.2281124294

> <CNNaffinity>
6.1999478340

> <CNN_VS>
1.4142851830

> <CNNaffinity_variance>
1.5878728628

$$$$
[H]Oc1c([H])c([H])c([C@@]2([H])Oc3c([H])c(O[H])c([H])c([H])c3O[C@@]2([H])c2c([H])c([H])c(OC([H])([H])[C@@]([H])(N3C([H])([H])C([H])([H])C([H])([H])C([H])([H])C3([H])[H])C([H])([H])[H])c([H])c2[H])c([H])c1[H]


 36 40  0  0  0  0  0  0  0  0999 V2000
    8.3397   45.2320  133.0489 C   0  0  0  0  0  0  0  0  0  0  0  0
    7.4198   46.2892  132.6801 O   0  0  0  0  0  0  0  0  0  0  0  0
    7.9917   47.5233  132.3402 C   0  0  0  0  0  0  0  0  0  0  0  0
    7.2369   48.4729  131.6440 C   0  0  0  0  0  0  0  0  0  0  0  0
    7.7574   49.6986  131.2886 C   0  0  0  0  0  0  0  0  0  0  0  0
    9.0653   49.9770  131.6402 C   0  0  0  0  0  0  0  0  0  0  0  0
    9.6083   51.2255  131.2834 O   0  0  0  0  0  0  0  0  0  0  0  0
    9.8524   49.0836  132.3231 C   0  0  0  0  0  0  0  0  0  0  0  0
    9.2773   47.8514  132.6617 C   0  0  0  0  0  0  0  0  0  0  0  0
   10.0539   46.9135  133.3605 O   0  0  0  0  0  0  0  0  0  0  0  0
    9.3222   45.8365  133.9485 C   0  0  0  0  0  0  0  0  0  0  0  0
    9.0523   51.8937  130.7847 H   0  0  0  0  0  0  0  0  0  0  0  0
   10.0559   45.0095  134.8841 C   0  0  0  0  0  0  0  0  0  0  0  0
    9.8391   45.1051  136.2659 C   0  0  0  0  0  0  0  0  0  0  0  0
   10.5483   44.3363  137.1658 C   0  0  0  0  0  0  0  0  0  0  0  0
   11.4973   43.4471  136.7104 C   0  0  0  0  0  0  0  0  0  0  0  0
   12.2350   42.6500  137.6047 O   0  0  0  0  0  0  0  0  0  0  0  0
   11.7222   43.3410  135.3619 C   0  0  0  0  0  0  0  0  0  0  0  0
   11.0069   44.1129  134.5010 C   0  0  0  0  0  0  0  0  0  0  0  0
   13.1039   43.0377  137.9470 H   0  0  0  0  0  0  0  0  0  0  0  0
    9.2195   43.1151  129.4530 C   0  0  0  0  0  0  0  0  0  0  0  0
    8.3346   44.1643  129.5218 C   0  0  0  0  0  0  0  0  0  0  0  0
    8.0911   44.8014  130.7013 C   0  0  0  0  0  0  0  0  0  0  0  0
    8.7202   44.4338  131.9102 C   0  0  0  0  0  0  0  0  0  0  0  0
    9.6008   43.3924  131.8401 C   0  0  0  0  0  0  0  0  0  0  0  0
    9.8341   42.7550  130.6260 C   0  0  0  0  0  0  0  0  0  0  0  0
    9.5090   42.4249  128.2833 O   0  0  0  0  0  0  0  0  0  0  0  0
    9.7324   43.0030  127.0295 C   0  0  0  0  0  0  0  0  0  0  0  0
   12.1795   43.0997  127.0620 C   0  0  0  0  0  0  0  0  0  0  0  0
   10.9325   43.9111  127.1580 C   0  0  0  0  0  0  0  0  0  0  0  0
   10.8287   44.7273  128.3431 N   0  0  0  0  0  0  0  0  0  0  0  0
   10.5368   46.1278  127.9782 C   0  0  0  0  0  0  0  0  0  0  0  0
   10.1216   46.7893  129.2976 C   0  0  0  0  0  0  0  0  0  0  0  0
   11.2510   46.7728  130.2825 C   0  0  0  0  0  0  0  0  0  0  0  0
   11.8269   45.3812  130.4235 C   0  0  0  0  0  0  0  0  0  0  0  0
   12.1061   44.8117  129.0512 C   0  0  0  0  0  0  0  0  0  0  0  0
 29 30  1  0  0  0
 30 28  1  0  0  0
 28 27  1  0  0  0
 27 21  1  0  0  0
 21 22  2  0  0  0
 22 23  1  0  0  0
 23 24  2  0  0  0
 24 25  1  0  0  0
 25 26  2  0  0  0
 24  1  1  0  0  0
  1  2  1  0  0  0
  2  3  1  0  0  0
  3  4  2  0  0  0
  4  5  1  0  0  0
  5  6  2  0  0  0
  6  7  1  0  0  0
  6  8  1  0  0  0
  8  9  2  0  0  0
  9 10  1  0  0  0
 10 11  1  0  0  0
 11 13  1  0  0  0
 13 14  2  0  0  0
 14 15  1  0  0  0
 15 16  2  0  0  0
 16 17  1  0  0  0
 16 18  1  0  0  0
 18 19  2  0  0  0
 30 31  1  0  0  0
 31 32  1  0  0  0
 32 33  1  0  0  0
 33 34  1  0  0  0
 34 35  1  0  0  0
 35 36  1  0  0  0
 26 21  1  0  0  0
 11  1  1  0  0  0
 19 13  1  0  0  0
 36 31  1  0  0  0
  9  3  1  0  0  0
  7 12  1  0  0  0
 17 20  1  0  0  0
M  END
> <minimizedAffinity>
10.51561

> <CNNscore>
0.2269647866

> <CNNaffinity>
7.3590774536

> <CNN_VS>
1.6702514887

> <CNNaffinity_variance>
0.5663287044

$$$$
[H]Oc1c([H])c([H])c([C@@]2([H])Sc3c([H])c(O[H])c([H])c([H])c3O[C@@]2([H])c2c([H])c([H])c(OC([H])([H])C([H])([H])N3C([H])([H])C([H])([H])C([H])([H])C([H])([H])C3([H])[H])c([H])c2[H])c([H])c1[H]


 35 39  0  0  0  0  0  0  0  0999 V2000
   10.1750   48.9967  131.6919 C   0  0  0  0  0  0  0  0  0  0  0  0
    9.9729   49.1739  133.4878 S   0  0  0  0  0  0  0  0  0  0  0  0
   11.4909   48.5959  134.1855 C   0  0  0  0  0  0  0  0  0  0  0  0
   11.8717   48.9710  135.4284 C   0  0  0  0  0  0  0  0  0  0  0  0
   13.0737   48.5162  135.9871 C   0  0  0  0  0  0  0  0  0  0  0  0
   13.4991   48.8736  137.2471 O   0  0  0  0  0  0  0  0  0  0  0  0
   13.8700   47.6721  135.2436 C   0  0  0  0  0  0  0  0  0  0  0  0
   13.4772   47.2933  133.9785 C   0  0  0  0  0  0  0  0  0  0  0  0
   12.2706   47.7629  133.4442 C   0  0  0  0  0  0  0  0  0  0  0  0
   11.9344   47.3554  132.1893 O   0  0  0  0  0  0  0  0  0  0  0  0
   10.8957   47.7294  131.3699 C   0  0  0  0  0  0  0  0  0  0  0  0
   14.0757   49.6848  137.4411 H   0  0  0  0  0  0  0  0  0  0  0  0
    5.4447   49.5424  128.6054 O   0  0  0  0  0  0  0  0  0  0  0  0
    6.6073   49.4148  129.3866 C   0  0  0  0  0  0  0  0  0  0  0  0
    7.6773   48.6962  128.9272 C   0  0  0  0  0  0  0  0  0  0  0  0
    8.8021   48.5850  129.7065 C   0  0  0  0  0  0  0  0  0  0  0  0
    8.9279   49.1637  130.9522 C   0  0  0  0  0  0  0  0  0  0  0  0
    7.8502   49.8846  131.4088 C   0  0  0  0  0  0  0  0  0  0  0  0
    6.7001   50.0068  130.6290 C   0  0  0  0  0  0  0  0  0  0  0  0
    5.3414   50.3222  127.9396 H   0  0  0  0  0  0  0  0  0  0  0  0
   10.0011   46.5495  131.1638 C   0  0  0  0  0  0  0  0  0  0  0  0
   10.2383   45.6477  130.1463 C   0  0  0  0  0  0  0  0  0  0  0  0
    9.4361   44.5550  129.9495 C   0  0  0  0  0  0  0  0  0  0  0  0
    8.3227   44.2847  130.7714 C   0  0  0  0  0  0  0  0  0  0  0  0
    8.0981   45.1924  131.7813 C   0  0  0  0  0  0  0  0  0  0  0  0
    8.9178   46.2968  131.9720 C   0  0  0  0  0  0  0  0  0  0  0  0
    7.5888   43.1916  130.5068 O   0  0  0  0  0  0  0  0  0  0  0  0
    7.5337   41.8998  130.9172 C   0  0  0  0  0  0  0  0  0  0  0  0
    8.1772   41.6767  132.2521 C   0  0  0  0  0  0  0  0  0  0  0  0
    9.3633   42.4996  132.4696 N   0  0  0  0  0  0  0  0  0  0  0  0
    9.6190   42.7163  133.8708 C   0  0  0  0  0  0  0  0  0  0  0  0
   10.8737   43.5507  134.0553 C   0  0  0  0  0  0  0  0  0  0  0  0
   11.4847   43.8006  132.6943 C   0  0  0  0  0  0  0  0  0  0  0  0
   11.7905   42.4370  132.0997 C   0  0  0  0  0  0  0  0  0  0  0  0
   10.4717   41.7373  131.9215 C   0  0  0  0  0  0  0  0  0  0  0  0
 13 14  1  0  0  0
 14 15  2  0  0  0
 15 16  1  0  0  0
 16 17  2  0  0  0
 17 18  1  0  0  0
 18 19  2  0  0  0
 17  1  1  0  0  0
  1  2  1  0  0  0
  2  3  1  0  0  0
  3  4  2  0  0  0
  4  5  1  0  0  0
  5  6  1  0  0  0
  5  7  2  0  0  0
  7  8  1  0  0  0
  8  9  2  0  0  0
  9 10  1  0  0  0
 10 11  1  0  0  0
 11 21  1  0  0  0
 21 22  2  0  0  0
 22 23  1  0  0  0
 23 24  2  0  0  0
 24 27  1  0  0  0
 27 28  1  0  0  0
 28 29  1  0  0  0
 29 30  1  0  0  0
 30 31  1  0  0  0
 31 32  1  0  0  0
 32 33  1  0  0  0
 33 34  1  0  0  0
 34 35  1  0  0  0
 24 25  1  0  0  0
 25 26  2  0  0  0
 19 14  1  0  0  0
 11  1  1  0  0  0
 26 21  1  0  0  0
  9  3  1  0  0  0
 35 30  1  0  0  0
 13 20  1  0  0  0
  6 12  1  0  0  0
M  END
> <minimizedAffinity>
14.18110

> <CNNscore>
0.4456148744

> <CNNaffinity>
7.5966377258

> <CNN_VS>
3.3851747513

> <CNNaffinity_variance>
0.4873682857

$$$$
[H]Oc1c([H])c([H])c([C@@]2([H])Sc3c([H])c(O[H])c([H])c([H])c3O[C@@]2([H])c2c([H])c([H])c(OC([H])([H])C([H])([H])N3C([H])([H])C([H])([H])C([H])([H])C([H])([H])C3([H])[H])c([H])c2[H])c([H])c1[H]


 35 39  0  0  0  0  0  0  0  0999 V2000
    8.8702   45.8434  129.2304 C   0  0  0  0  0  0  0  0  0  0  0  0
   10.4986   46.5482  128.8442 S   0  0  0  0  0  0  0  0  0  0  0  0
   11.6626   45.2849  129.2614 C   0  0  0  0  0  0  0  0  0  0  0  0
   12.9023   45.2760  128.7198 C   0  0  0  0  0  0  0  0  0  0  0  0
   13.8296   44.2775  129.0465 C   0  0  0  0  0  0  0  0  0  0  0  0
   15.1004   44.2304  128.5183 O   0  0  0  0  0  0  0  0  0  0  0  0
   13.4557   43.2947  129.9375 C   0  0  0  0  0  0  0  0  0  0  0  0
   12.1919   43.3088  130.4860 C   0  0  0  0  0  0  0  0  0  0  0  0
   11.2845   44.3188  130.1419 C   0  0  0  0  0  0  0  0  0  0  0  0
   10.0501   44.2813  130.7151 O   0  0  0  0  0  0  0  0  0  0  0  0
    8.9312   45.0485  130.4928 C   0  0  0  0  0  0  0  0  0  0  0  0
   15.3405   43.7405  127.6635 H   0  0  0  0  0  0  0  0  0  0  0  0
    4.8748   49.8726  129.1766 O   0  0  0  0  0  0  0  0  0  0  0  0
    5.8506   48.8597  129.1884 C   0  0  0  0  0  0  0  0  0  0  0  0
    7.1752   49.1695  129.0403 C   0  0  0  0  0  0  0  0  0  0  0  0
    8.1105   48.1647  129.0551 C   0  0  0  0  0  0  0  0  0  0  0  0
    7.7957   46.8310  129.2132 C   0  0  0  0  0  0  0  0  0  0  0  0
    6.4637   46.5254  129.3618 C   0  0  0  0  0  0  0  0  0  0  0  0
    5.5013   47.5350  129.3487 C   0  0  0  0  0  0  0  0  0  0  0  0
    4.5883   50.3370  130.0508 H   0  0  0  0  0  0  0  0  0  0  0  0
    8.6387   45.8362  131.7293 C   0  0  0  0  0  0  0  0  0  0  0  0
    7.9759   45.2635  132.7958 C   0  0  0  0  0  0  0  0  0  0  0  0
    7.7094   45.9664  133.9409 C   0  0  0  0  0  0  0  0  0  0  0  0
    8.0946   47.3135  134.1003 C   0  0  0  0  0  0  0  0  0  0  0  0
    8.7539   47.8715  133.0288 C   0  0  0  0  0  0  0  0  0  0  0  0
    9.0191   47.1497  131.8727 C   0  0  0  0  0  0  0  0  0  0  0  0
    7.7919   47.9278  135.2555 O   0  0  0  0  0  0  0  0  0  0  0  0
    8.2450   47.9342  136.5342 C   0  0  0  0  0  0  0  0  0  0  0  0
    9.6680   47.4810  136.6583 C   0  0  0  0  0  0  0  0  0  0  0  0
   10.0449   46.4744  135.6703 N   0  0  0  0  0  0  0  0  0  0  0  0
   11.2280   46.8528  134.9404 C   0  0  0  0  0  0  0  0  0  0  0  0
   11.6027   45.7697  133.9448 C   0  0  0  0  0  0  0  0  0  0  0  0
   10.6475   44.6099  134.1199 C   0  0  0  0  0  0  0  0  0  0  0  0
   10.7963   44.1389  135.5560 C   0  0  0  0  0  0  0  0  0  0  0  0
   10.3494   45.2758  136.4325 C   0  0  0  0  0  0  0  0  0  0  0  0
 13 14  1  0  0  0
 14 15  2  0  0  0
 15 16  1  0  0  0
 16 17  2  0  0  0
 17 18  1  0  0  0
 18 19  2  0  0  0
 17  1  1  0  0  0
  1  2  1  0  0  0
  2  3  1  0  0  0
  3  4  2  0  0  0
  4  5  1  0  0  0
  5  6  1  0  0  0
  5  7  2  0  0  0
  7  8  1  0  0  0
  8  9  2  0  0  0
  9 10  1  0  0  0
 10 11  1  0  0  0
 11 21  1  0  0  0
 21 22  2  0  0  0
 22 23  1  0  0  0
 23 24  2  0  0  0
 24 27  1  0  0  0
 27 28  1  0  0  0
 28 29  1  0  0  0
 29 30  1  0  0  0
 30 31  1  0  0  0
 31 32  1  0  0  0
 32 33  1  0  0  0
 33 34  1  0  0  0
 34 35  1  0  0  0
 24 25  1  0  0  0
 25 26  2  0  0  0
 19 14  1  0  0  0
 11  1  1  0  0  0
 26 21  1  0  0  0
  9  3  1  0  0  0
 35 30  1  0  0  0
 13 20  1  0  0  0
  6 12  1  0  0  0
M  END
> <minimizedAffinity>
8.29790

> <CNNscore>
0.4160178006

> <CNNaffinity>
7.6613516808

> <CNN_VS>
3.1872587204

> <CNNaffinity_variance>
1.0321993828

$$$$
[H]Oc1c([H])c([H])c([C@@]2([H])Sc3c([H])c(O[H])c([H])c([H])c3O[C@@]2([H])c2c([H])c([H])c(OC([H])([H])C([H])([H])N3C([H])([H])C([H])([H])C([H])([H])C([H])([H])C3([H])[H])c([H])c2[H])c([H])c1[H]


 35 39  0  0  0  0  0  0  0  0999 V2000
    8.0539   46.8430  128.9387 C   0  0  0  0  0  0  0  0  0  0  0  0
    9.7624   46.7109  128.3379 S   0  0  0  0  0  0  0  0  0  0  0  0
   10.0629   44.9770  128.1690 C   0  0  0  0  0  0  0  0  0  0  0  0
   11.0417   44.5174  127.3560 C   0  0  0  0  0  0  0  0  0  0  0  0
   11.2850   43.1442  127.2178 C   0  0  0  0  0  0  0  0  0  0  0  0
   12.2696   42.6341  126.4015 O   0  0  0  0  0  0  0  0  0  0  0  0
   10.5039   42.2601  127.9304 C   0  0  0  0  0  0  0  0  0  0  0  0
    9.5085   42.7338  128.7568 C   0  0  0  0  0  0  0  0  0  0  0  0
    9.2868   44.1116  128.8763 C   0  0  0  0  0  0  0  0  0  0  0  0
    8.2892   44.5213  129.7074 O   0  0  0  0  0  0  0  0  0  0  0  0
    7.7677   45.7721  129.9389 C   0  0  0  0  0  0  0  0  0  0  0  0
   12.1281   42.3920  125.4270 H   0  0  0  0  0  0  0  0  0  0  0  0
    6.4631   52.0123  130.6557 O   0  0  0  0  0  0  0  0  0  0  0  0
    6.8761   50.7345  130.2373 C   0  0  0  0  0  0  0  0  0  0  0  0
    5.9569   49.8059  129.8309 C   0  0  0  0  0  0  0  0  0  0  0  0
    6.3826   48.5650  129.4265 C   0  0  0  0  0  0  0  0  0  0  0  0
    7.7078   48.1830  129.4023 C   0  0  0  0  0  0  0  0  0  0  0  0
    8.6270   49.1197  129.8114 C   0  0  0  0  0  0  0  0  0  0  0  0
    8.2103   50.3849  130.2254 C   0  0  0  0  0  0  0  0  0  0  0  0
    6.3784   52.7852  129.9793 H   0  0  0  0  0  0  0  0  0  0  0  0
    8.0615   46.1580  131.3530 C   0  0  0  0  0  0  0  0  0  0  0  0
    7.5921   45.4016  132.4076 C   0  0  0  0  0  0  0  0  0  0  0  0
    7.8608   45.7335  133.7091 C   0  0  0  0  0  0  0  0  0  0  0  0
    8.6312   46.8641  134.0506 C   0  0  0  0  0  0  0  0  0  0  0  0
    9.0921   47.6091  132.9890 C   0  0  0  0  0  0  0  0  0  0  0  0
    8.8138   47.2634  131.6733 C   0  0  0  0  0  0  0  0  0  0  0  0
    8.8451   47.1169  135.3520 O   0  0  0  0  0  0  0  0  0  0  0  0
    9.7254   46.7405  136.3131 C   0  0  0  0  0  0  0  0  0  0  0  0
   10.3411   45.3986  136.0565 C   0  0  0  0  0  0  0  0  0  0  0  0
   10.6842   45.1756  134.6551 N   0  0  0  0  0  0  0  0  0  0  0  0
   11.9826   45.7070  134.3273 C   0  0  0  0  0  0  0  0  0  0  0  0
   12.3137   45.4307  132.8718 C   0  0  0  0  0  0  0  0  0  0  0  0
   11.1941   44.6062  132.2762 C   0  0  0  0  0  0  0  0  0  0  0  0
   11.1142   43.3290  133.0940 C   0  0  0  0  0  0  0  0  0  0  0  0
   10.7327   43.7331  134.4910 C   0  0  0  0  0  0  0  0  0  0  0  0
 13 14  1  0  0  0
 14 15  2  0  0  0
 15 16  1  0  0  0
 16 17  2  0  0  0
 17 18  1  0  0  0
 18 19  2  0  0  0
 17  1  1  0  0  0
  1  2  1  0  0  0
  2  3  1  0  0  0
  3  4  2  0  0  0
  4  5  1  0  0  0
  5  6  1  0  0  0
  5  7  2  0  0  0
  7  8  1  0  0  0
  8  9  2  0  0  0
  9 10  1  0  0  0
 10 11  1  0  0  0
 11 21  1  0  0  0
 21 22  2  0  0  0
 22 23  1  0  0  0
 23 24  2  0  0  0
 24 27  1  0  0  0
 27 28  1  0  0  0
 28 29  1  0  0  0
 29 30  1  0  0  0
 30 31  1  0  0  0
 31 32  1  0  0  0
 32 33  1  0  0  0
 33 34  1  0  0  0
 34 35  1  0  0  0
 24 25  1  0  0  0
 25 26  2  0  0  0
 19 14  1  0  0  0
 11  1  1  0  0  0
 26 21  1  0  0  0
  9  3  1  0  0  0
 35 30  1  0  0  0
 13 20  1  0  0  0
  6 12  1  0  0  0
M  END
> <minimizedAffinity>
4.90983

> <CNNscore>
0.3632900715

> <CNNaffinity>
7.5107955933

> <CNN_VS>
2.7285974026

> <CNNaffinity_variance>
0.3762894273

$$$$
[H]Oc1c([H])c([H])c([C@@]2([H])Sc3c([H])c(O[H])c([H])c([H])c3O[C@@]2([H])c2c([H])c([H])c(OC([H])([H])C([H])([H])N3C([H])([H])C([H])([H])C([H])([H])C([H])([H])C3([H])[H])c([H])c2[H])c([H])c1[H]


 35 39  0  0  0  0  0  0  0  0999 V2000
   10.3888   44.7348  130.9690 C   0  0  0  0  0  0  0  0  0  0  0  0
    9.8258   43.7545  129.5478 S   0  0  0  0  0  0  0  0  0  0  0  0
   11.1681   43.7896  128.3980 C   0  0  0  0  0  0  0  0  0  0  0  0
   11.2889   42.8403  127.4417 C   0  0  0  0  0  0  0  0  0  0  0  0
   12.3505   42.8625  126.5273 C   0  0  0  0  0  0  0  0  0  0  0  0
   12.5115   41.9164  125.5398 O   0  0  0  0  0  0  0  0  0  0  0  0
   13.2790   43.8770  126.6177 C   0  0  0  0  0  0  0  0  0  0  0  0
   13.1510   44.8412  127.5936 C   0  0  0  0  0  0  0  0  0  0  0  0
   12.0799   44.7949  128.4950 C   0  0  0  0  0  0  0  0  0  0  0  0
   12.0051   45.7741  129.4379 O   0  0  0  0  0  0  0  0  0  0  0  0
   11.1562   45.9297  130.5081 C   0  0  0  0  0  0  0  0  0  0  0  0
   13.0389   41.0585  125.6582 H   0  0  0  0  0  0  0  0  0  0  0  0
    6.0930   46.0800  134.4239 O   0  0  0  0  0  0  0  0  0  0  0  0
    7.1677   45.7383  133.5833 C   0  0  0  0  0  0  0  0  0  0  0  0
    7.0404   45.8240  132.2236 C   0  0  0  0  0  0  0  0  0  0  0  0
    8.1025   45.4855  131.4222 C   0  0  0  0  0  0  0  0  0  0  0  0
    9.3190   45.0543  131.9090 C   0  0  0  0  0  0  0  0  0  0  0  0
    9.4415   44.9703  133.2756 C   0  0  0  0  0  0  0  0  0  0  0  0
    8.3715   45.3104  134.1033 C   0  0  0  0  0  0  0  0  0  0  0  0
    5.9779   47.0460  134.7639 H   0  0  0  0  0  0  0  0  0  0  0  0
   10.3188   47.1471  130.2806 C   0  0  0  0  0  0  0  0  0  0  0  0
    9.6333   47.3262  129.0963 C   0  0  0  0  0  0  0  0  0  0  0  0
    8.8525   48.4296  128.8746 C   0  0  0  0  0  0  0  0  0  0  0  0
    8.7011   49.4468  129.8394 C   0  0  0  0  0  0  0  0  0  0  0  0
    9.3907   49.2551  131.0150 C   0  0  0  0  0  0  0  0  0  0  0  0
   10.1794   48.1325  131.2293 C   0  0  0  0  0  0  0  0  0  0  0  0
    7.9174   50.4951  129.5390 O   0  0  0  0  0  0  0  0  0  0  0  0
    6.6926   50.7056  128.9952 C   0  0  0  0  0  0  0  0  0  0  0  0
    6.2632   52.1404  129.0456 C   0  0  0  0  0  0  0  0  0  0  0  0
    6.9134   52.9767  128.0410 N   0  0  0  0  0  0  0  0  0  0  0  0
    7.5732   52.1899  127.0304 C   0  0  0  0  0  0  0  0  0  0  0  0
    8.2116   53.0938  125.9911 C   0  0  0  0  0  0  0  0  0  0  0  0
    7.8604   54.5267  126.3252 C   0  0  0  0  0  0  0  0  0  0  0  0
    6.3446   54.6176  126.3043 C   0  0  0  0  0  0  0  0  0  0  0  0
    5.8426   53.7232  127.4036 C   0  0  0  0  0  0  0  0  0  0  0  0
 13 14  1  0  0  0
 14 15  2  0  0  0
 15 16  1  0  0  0
 16 17  2  0  0  0
 17 18  1  0  0  0
 18 19  2  0  0  0
 17  1  1  0  0  0
  1  2  1  0  0  0
  2  3  1  0  0  0
  3  4  2  0  0  0
  4  5  1  0  0  0
  5  6  1  0  0  0
  5  7  2  0  0  0
  7  8  1  0  0  0
  8  9  2  0  0  0
  9 10  1  0  0  0
 10 11  1  0  0  0
 11 21  1  0  0  0
 21 22  2  0  0  0
 22 23  1  0  0  0
 23 24  2  0  0  0
 24 27  1  0  0  0
 27 28  1  0  0  0
 28 29  1  0  0  0
 29 30  1  0  0  0
 30 31  1  0  0  0
 31 32  1  0  0  0
 32 33  1  0  0  0
 33 34  1  0  0  0
 34 35  1  0  0  0
 24 25  1  0  0  0
 25 26  2  0  0  0
 19 14  1  0  0  0
 11  1  1  0  0  0
 26 21  1  0  0  0
  9  3  1  0  0  0
 35 30  1  0  0  0
 13 20  1  0  0  0
  6 12  1  0  0  0
M  END
> <minimizedAffinity>
30.15524

> <CNNscore>
0.3480794728

> <CNNaffinity>
6.7655181885

> <CNN_VS>
2.3549380302

> <CNNaffinity_variance>
1.1945298910

$$$$
[H]Oc1c([H])c([H])c([C@@]2([H])Sc3c([H])c(O[H])c([H])c([H])c3O[C@@]2([H])c2c([H])c([H])c(OC([H])([H])C([H])([H])N3C([H])([H])C([H])([H])C([H])([H])C([H])([H])C3([H])[H])c([H])c2[H])c([H])c1[H]


 35 39  0  0  0  0  0  0  0  0999 V2000
   10.7503   48.5982  132.2228 C   0  0  0  0  0  0  0  0  0  0  0  0
   10.5123   49.1242  133.9445 S   0  0  0  0  0  0  0  0  0  0  0  0
   11.9730   48.6066  134.7948 C   0  0  0  0  0  0  0  0  0  0  0  0
   12.3432   49.1893  135.9583 C   0  0  0  0  0  0  0  0  0  0  0  0
   13.4999   48.7835  136.6373 C   0  0  0  0  0  0  0  0  0  0  0  0
   13.9131   49.3497  137.8226 O   0  0  0  0  0  0  0  0  0  0  0  0
   14.2624   47.7709  136.0962 C   0  0  0  0  0  0  0  0  0  0  0  0
   13.8807   47.1809  134.9111 C   0  0  0  0  0  0  0  0  0  0  0  0
   12.7196   47.6062  134.2532 C   0  0  0  0  0  0  0  0  0  0  0  0
   12.3923   46.9869  133.0857 O   0  0  0  0  0  0  0  0  0  0  0  0
   11.4003   47.2550  132.1722 C   0  0  0  0  0  0  0  0  0  0  0  0
   14.5329   50.1500  137.8820 H   0  0  0  0  0  0  0  0  0  0  0  0
    6.1768   48.9344  128.8808 O   0  0  0  0  0  0  0  0  0  0  0  0
    7.2983   48.8523  129.7255 C   0  0  0  0  0  0  0  0  0  0  0  0
    8.5225   48.5044  129.2228 C   0  0  0  0  0  0  0  0  0  0  0  0
    9.6036   48.4306  130.0657 C   0  0  0  0  0  0  0  0  0  0  0  0
    9.5358   48.6901  131.4187 C   0  0  0  0  0  0  0  0  0  0  0  0
    8.3037   49.0393  131.9185 C   0  0  0  0  0  0  0  0  0  0  0  0
    7.1955   49.1185  131.0750 C   0  0  0  0  0  0  0  0  0  0  0  0
    5.9367   49.8192  128.4100 H   0  0  0  0  0  0  0  0  0  0  0  0
   10.4410   46.1086  132.1584 C   0  0  0  0  0  0  0  0  0  0  0  0
    9.3724   46.0874  131.2853 C   0  0  0  0  0  0  0  0  0  0  0  0
    8.4899   45.0403  131.2507 C   0  0  0  0  0  0  0  0  0  0  0  0
    8.6185   43.9233  132.1017 C   0  0  0  0  0  0  0  0  0  0  0  0
    9.6881   43.9584  132.9671 C   0  0  0  0  0  0  0  0  0  0  0  0
   10.5767   45.0249  132.9937 C   0  0  0  0  0  0  0  0  0  0  0  0
    7.7076   42.9415  132.0023 O   0  0  0  0  0  0  0  0  0  0  0  0
    7.4201   41.9256  131.1504 C   0  0  0  0  0  0  0  0  0  0  0  0
    8.5794   41.5354  130.2847 C   0  0  0  0  0  0  0  0  0  0  0  0
    9.3781   42.6724  129.8368 N   0  0  0  0  0  0  0  0  0  0  0  0
   10.7598   42.5465  130.2253 C   0  0  0  0  0  0  0  0  0  0  0  0
   11.5608   43.7319  129.7176 C   0  0  0  0  0  0  0  0  0  0  0  0
   10.6445   44.6085  128.8928 C   0  0  0  0  0  0  0  0  0  0  0  0
   10.1249   43.7445  127.7571 C   0  0  0  0  0  0  0  0  0  0  0  0
    9.3135   42.6459  128.3858 C   0  0  0  0  0  0  0  0  0  0  0  0
 13 14  1  0  0  0
 14 15  2  0  0  0
 15 16  1  0  0  0
 16 17  2  0  0  0
 17 18  1  0  0  0
 18 19  2  0  0  0
 17  1  1  0  0  0
  1  2  1  0  0  0
  2  3  1  0  0  0
  3  4  2  0  0  0
  4  5  1  0  0  0
  5  6  1  0  0  0
  5  7  2  0  0  0
  7  8  1  0  0  0
  8  9  2  0  0  0
  9 10  1  0  0  0
 10 11  1  0  0  0
 11 21  1  0  0  0
 21 22  2  0  0  0
 22 23  1  0  0  0
 23 24  2  0  0  0
 24 27  1  0  0  0
 27 28  1  0  0  0
 28 29  1  0  0  0
 29 30  1  0  0  0
 30 31  1  0  0  0
 31 32  1  0  0  0
 32 33  1  0  0  0
 33 34  1  0  0  0
 34 35  1  0  0  0
 24 25  1  0  0  0
 25 26  2  0  0  0
 19 14  1  0  0  0
 11  1  1  0  0  0
 26 21  1  0  0  0
  9  3  1  0  0  0
 35 30  1  0  0  0
 13 20  1  0  0  0
  6 12  1  0  0  0
M  END
> <minimizedAffinity>
13.36876

> <CNNscore>
0.3224845529

> <CNNaffinity>
7.2915077209

> <CNN_VS>
2.3513987064

> <CNNaffinity_variance>
0.4336237013

$$$$
[H]Oc1c([H])c([H])c([C@@]2([H])Sc3c([H])c(O[H])c([H])c([H])c3O[C@@]2([H])c2c([H])c([H])c(OC([H])([H])C([H])([H])N3C([H])([H])C([H])([H])C([H])([H])C([H])([H])C3([H])[H])c([H])c2[H])c([H])c1[H]


 35 39  0  0  0  0  0  0  0  0999 V2000
   10.5441   45.0110  132.0121 C   0  0  0  0  0  0  0  0  0  0  0  0
    9.3700   43.8110  131.3198 S   0  0  0  0  0  0  0  0  0  0  0  0
    9.9690   43.4595  129.6942 C   0  0  0  0  0  0  0  0  0  0  0  0
    9.6185   42.3193  129.0560 C   0  0  0  0  0  0  0  0  0  0  0  0
   10.0898   42.0348  127.7672 C   0  0  0  0  0  0  0  0  0  0  0  0
    9.7588   40.8869  127.0826 O   0  0  0  0  0  0  0  0  0  0  0  0
   10.9241   42.9440  127.1535 C   0  0  0  0  0  0  0  0  0  0  0  0
   11.2778   44.1037  127.8081 C   0  0  0  0  0  0  0  0  0  0  0  0
   10.7922   44.3629  129.0961 C   0  0  0  0  0  0  0  0  0  0  0  0
   11.1756   45.5245  129.6938 O   0  0  0  0  0  0  0  0  0  0  0  0
   10.9630   45.9933  130.9687 C   0  0  0  0  0  0  0  0  0  0  0  0
   10.2907   40.0251  127.1316 H   0  0  0  0  0  0  0  0  0  0  0  0
    8.4757   47.4662  136.6911 O   0  0  0  0  0  0  0  0  0  0  0  0
    9.0061   46.8549  135.5409 C   0  0  0  0  0  0  0  0  0  0  0  0
    8.1875   46.4957  134.5049 C   0  0  0  0  0  0  0  0  0  0  0  0
    8.7269   45.9003  133.3917 C   0  0  0  0  0  0  0  0  0  0  0  0
   10.0723   45.6337  133.2449 C   0  0  0  0  0  0  0  0  0  0  0  0
   10.8902   45.9967  134.2884 C   0  0  0  0  0  0  0  0  0  0  0  0
   10.3573   46.6023  135.4264 C   0  0  0  0  0  0  0  0  0  0  0  0
    8.3949   48.4918  136.7517 H   0  0  0  0  0  0  0  0  0  0  0  0
   10.1015   47.2127  130.8918 C   0  0  0  0  0  0  0  0  0  0  0  0
    8.7441   47.1098  130.6646 C   0  0  0  0  0  0  0  0  0  0  0  0
    7.9375   48.2151  130.6022 C   0  0  0  0  0  0  0  0  0  0  0  0
    8.4422   49.5216  130.7662 C   0  0  0  0  0  0  0  0  0  0  0  0
    9.7972   49.6089  130.9916 C   0  0  0  0  0  0  0  0  0  0  0  0
   10.6056   48.4817  131.0530 C   0  0  0  0  0  0  0  0  0  0  0  0
    7.5810   50.5491  130.6886 O   0  0  0  0  0  0  0  0  0  0  0  0
    6.3899   50.9001  131.2349 C   0  0  0  0  0  0  0  0  0  0  0  0
    5.2224   50.6088  130.3417 C   0  0  0  0  0  0  0  0  0  0  0  0
    5.5583   49.7530  129.2076 N   0  0  0  0  0  0  0  0  0  0  0  0
    6.9701   49.7684  128.9209 C   0  0  0  0  0  0  0  0  0  0  0  0
    7.2820   48.8464  127.7558 C   0  0  0  0  0  0  0  0  0  0  0  0
    6.0040   48.1504  127.3431 C   0  0  0  0  0  0  0  0  0  0  0  0
    5.5154   47.3843  128.5600 C   0  0  0  0  0  0  0  0  0  0  0  0
    5.1955   48.4067  129.6149 C   0  0  0  0  0  0  0  0  0  0  0  0
 13 14  1  0  0  0
 14 15  2  0  0  0
 15 16  1  0  0  0
 16 17  2  0  0  0
 17 18  1  0  0  0
 18 19  2  0  0  0
 17  1  1  0  0  0
  1  2  1  0  0  0
  2  3  1  0  0  0
  3  4  2  0  0  0
  4  5  1  0  0  0
  5  6  1  0  0  0
  5  7  2  0  0  0
  7  8  1  0  0  0
  8  9  2  0  0  0
  9 10  1  0  0  0
 10 11  1  0  0  0
 11 21  1  0  0  0
 21 22  2  0  0  0
 22 23  1  0  0  0
 23 24  2  0  0  0
 24 27  1  0  0  0
 27 28  1  0  0  0
 28 29  1  0  0  0
 29 30  1  0  0  0
 30 31  1  0  0  0
 31 32  1  0  0  0
 32 33  1  0  0  0
 33 34  1  0  0  0
 34 35  1  0  0  0
 24 25  1  0  0  0
 25 26  2  0  0  0
 19 14  1  0  0  0
 11  1  1  0  0  0
 26 21  1  0  0  0
  9  3  1  0  0  0
 35 30  1  0  0  0
 13 20  1  0  0  0
  6 12  1  0  0  0
M  END
> <minimizedAffinity>
9.22799

> <CNNscore>
0.3201250732

> <CNNaffinity>
7.4505033493

> <CNN_VS>
2.3850929737

> <CNNaffinity_variance>
0.6795341372

$$$$
[H]Oc1c([H])c([H])c([C@@]2([H])Sc3c([H])c(O[H])c([H])c([H])c3O[C@@]2([H])c2c([H])c([H])c(OC([H])([H])C([H])([H])N3C([H])([H])C([H])([H])C([H])([H])C([H])([H])C3([H])[H])c([H])c2[H])c([H])c1[H]


 35 39  0  0  0  0  0  0  0  0999 V2000
   10.0918   47.2997  129.9417 C   0  0  0  0  0  0  0  0  0  0  0  0
    8.7850   48.5605  129.9287 S   0  0  0  0  0  0  0  0  0  0  0  0
    9.2022   49.6758  131.2353 C   0  0  0  0  0  0  0  0  0  0  0  0
    8.7224   50.9407  131.2489 C   0  0  0  0  0  0  0  0  0  0  0  0
    9.0493   51.8296  132.2818 C   0  0  0  0  0  0  0  0  0  0  0  0
    8.5839   53.1245  132.3340 O   0  0  0  0  0  0  0  0  0  0  0  0
    9.8753   51.3908  133.2941 C   0  0  0  0  0  0  0  0  0  0  0  0
   10.3610   50.1016  133.2751 C   0  0  0  0  0  0  0  0  0  0  0  0
   10.0183   49.2339  132.2303 C   0  0  0  0  0  0  0  0  0  0  0  0
   10.5282   47.9719  132.2643 O   0  0  0  0  0  0  0  0  0  0  0  0
   10.4684   46.9522  131.3441 C   0  0  0  0  0  0  0  0  0  0  0  0
    9.0640   53.9158  131.9199 H   0  0  0  0  0  0  0  0  0  0  0  0
    9.1353   42.7616  126.6721 O   0  0  0  0  0  0  0  0  0  0  0  0
    9.3525   43.8872  127.4870 C   0  0  0  0  0  0  0  0  0  0  0  0
   10.6232   44.2618  127.8297 C   0  0  0  0  0  0  0  0  0  0  0  0
   10.8118   45.3640  128.6260 C   0  0  0  0  0  0  0  0  0  0  0  0
    9.7800   46.1377  129.1155 C   0  0  0  0  0  0  0  0  0  0  0  0
    8.5056   45.7571  128.7681 C   0  0  0  0  0  0  0  0  0  0  0  0
    8.2975   44.6394  127.9599 C   0  0  0  0  0  0  0  0  0  0  0  0
    9.0973   42.8543  125.6464 H   0  0  0  0  0  0  0  0  0  0  0  0
    9.6803   45.8253  131.9304 C   0  0  0  0  0  0  0  0  0  0  0  0
    9.4484   44.6709  131.2103 C   0  0  0  0  0  0  0  0  0  0  0  0
    8.7382   43.6238  131.7353 C   0  0  0  0  0  0  0  0  0  0  0  0
    8.2025   43.6604  133.0392 C   0  0  0  0  0  0  0  0  0  0  0  0
    8.4411   44.8175  133.7451 C   0  0  0  0  0  0  0  0  0  0  0  0
    9.1625   45.8729  133.2032 C   0  0  0  0  0  0  0  0  0  0  0  0
    7.5179   42.5901  133.4743 O   0  0  0  0  0  0  0  0  0  0  0  0
    7.7897   41.3210  133.8692 C   0  0  0  0  0  0  0  0  0  0  0  0
    9.2129   41.1282  134.2971 C   0  0  0  0  0  0  0  0  0  0  0  0
   10.1228   42.1344  133.7576 N   0  0  0  0  0  0  0  0  0  0  0  0
   10.9020   42.7659  134.7920 C   0  0  0  0  0  0  0  0  0  0  0  0
   11.8537   43.7833  134.1889 C   0  0  0  0  0  0  0  0  0  0  0  0
   11.7214   43.7259  132.6831 C   0  0  0  0  0  0  0  0  0  0  0  0
   12.0703   42.3064  132.2712 C   0  0  0  0  0  0  0  0  0  0  0  0
   11.0321   41.4100  132.8867 C   0  0  0  0  0  0  0  0  0  0  0  0
 13 14  1  0  0  0
 14 15  2  0  0  0
 15 16  1  0  0  0
 16 17  2  0  0  0
 17 18  1  0  0  0
 18 19  2  0  0  0
 17  1  1  0  0  0
  1  2  1  0  0  0
  2  3  1  0  0  0
  3  4  2  0  0  0
  4  5  1  0  0  0
  5  6  1  0  0  0
  5  7  2  0  0  0
  7  8  1  0  0  0
  8  9  2  0  0  0
  9 10  1  0  0  0
 10 11  1  0  0  0
 11 21  1  0  0  0
 21 22  2  0  0  0
 22 23  1  0  0  0
 23 24  2  0  0  0
 24 27  1  0  0  0
 27 28  1  0  0  0
 28 29  1  0  0  0
 29 30  1  0  0  0
 30 31  1  0  0  0
 31 32  1  0  0  0
 32 33  1  0  0  0
 33 34  1  0  0  0
 34 35  1  0  0  0
 24 25  1  0  0  0
 25 26  2  0  0  0
 19 14  1  0  0  0
 11  1  1  0  0  0
 26 21  1  0  0  0
  9  3  1  0  0  0
 35 30  1  0  0  0
 13 20  1  0  0  0
  6 12  1  0  0  0
M  END
> <minimizedAffinity>
17.02648

> <CNNscore>
0.3189156353

> <CNNaffinity>
7.3927102089

> <CNN_VS>
2.3576507568

> <CNNaffinity_variance>
0.9107763171

$$$$
[H]Oc1c([H])c([H])c([C@@]2([H])Sc3c([H])c(O[H])c([H])c([H])c3O[C@@]2([H])c2c([H])c([H])c(OC([H])([H])C([H])([H])N3C([H])([H])C([H])([H])C([H])([H])C([H])([H])C3([H])[H])c([H])c2[H])c([H])c1[H]


 35 39  0  0  0  0  0  0  0  0999 V2000
   10.9870   45.8932  131.4310 C   0  0  0  0  0  0  0  0  0  0  0  0
   10.7706   44.6733  132.7587 S   0  0  0  0  0  0  0  0  0  0  0  0
   10.8828   43.0978  131.9650 C   0  0  0  0  0  0  0  0  0  0  0  0
   11.1988   41.9862  132.6686 C   0  0  0  0  0  0  0  0  0  0  0  0
   11.2892   40.7343  132.0454 C   0  0  0  0  0  0  0  0  0  0  0  0
   11.6084   39.5790  132.7232 O   0  0  0  0  0  0  0  0  0  0  0  0
   11.0486   40.6519  130.6908 C   0  0  0  0  0  0  0  0  0  0  0  0
   10.7272   41.7871  129.9793 C   0  0  0  0  0  0  0  0  0  0  0  0
   10.6436   43.0260  130.6274 C   0  0  0  0  0  0  0  0  0  0  0  0
   10.3225   44.1131  129.8733 O   0  0  0  0  0  0  0  0  0  0  0  0
   10.2793   45.4495  130.1936 C   0  0  0  0  0  0  0  0  0  0  0  0
   12.5556   39.2394  132.8486 H   0  0  0  0  0  0  0  0  0  0  0  0
    9.6267   51.0919  133.2538 O   0  0  0  0  0  0  0  0  0  0  0  0
    9.9690   49.8112  132.7839 C   0  0  0  0  0  0  0  0  0  0  0  0
   10.0703   48.7574  133.6509 C   0  0  0  0  0  0  0  0  0  0  0  0
   10.4057   47.5159  133.1702 C   0  0  0  0  0  0  0  0  0  0  0  0
   10.6534   47.2543  131.8387 C   0  0  0  0  0  0  0  0  0  0  0  0
   10.5501   48.3163  130.9721 C   0  0  0  0  0  0  0  0  0  0  0  0
   10.2104   49.5839  131.4450 C   0  0  0  0  0  0  0  0  0  0  0  0
    8.6405   51.3866  133.3061 H   0  0  0  0  0  0  0  0  0  0  0  0
    8.8635   45.9190  130.0940 C   0  0  0  0  0  0  0  0  0  0  0  0
    8.4369   46.6643  129.0135 C   0  0  0  0  0  0  0  0  0  0  0  0
    7.1411   47.0934  128.8999 C   0  0  0  0  0  0  0  0  0  0  0  0
    6.1663   46.8010  129.8760 C   0  0  0  0  0  0  0  0  0  0  0  0
    6.6060   46.0578  130.9477 C   0  0  0  0  0  0  0  0  0  0  0  0
    7.9220   45.6277  131.0528 C   0  0  0  0  0  0  0  0  0  0  0  0
    4.9195   47.2624  129.6861 O   0  0  0  0  0  0  0  0  0  0  0  0
    4.3025   48.1890  128.9108 C   0  0  0  0  0  0  0  0  0  0  0  0
    4.1542   49.5188  129.5857 C   0  0  0  0  0  0  0  0  0  0  0  0
    5.3872   50.3004  129.6059 N   0  0  0  0  0  0  0  0  0  0  0  0
    6.1506   50.0710  130.8060 C   0  0  0  0  0  0  0  0  0  0  0  0
    7.4359   50.8782  130.7762 C   0  0  0  0  0  0  0  0  0  0  0  0
    7.5214   51.5895  129.4439 C   0  0  0  0  0  0  0  0  0  0  0  0
    7.5019   50.5110  128.3748 C   0  0  0  0  0  0  0  0  0  0  0  0
    6.1679   49.8250  128.4770 C   0  0  0  0  0  0  0  0  0  0  0  0
 13 14  1  0  0  0
 14 15  2  0  0  0
 15 16  1  0  0  0
 16 17  2  0  0  0
 17 18  1  0  0  0
 18 19  2  0  0  0
 17  1  1  0  0  0
  1  2  1  0  0  0
  2  3  1  0  0  0
  3  4  2  0  0  0
  4  5  1  0  0  0
  5  6  1  0  0  0
  5  7  2  0  0  0
  7  8  1  0  0  0
  8  9  2  0  0  0
  9 10  1  0  0  0
 10 11  1  0  0  0
 11 21  1  0  0  0
 21 22  2  0  0  0
 22 23  1  0  0  0
 23 24  2  0  0  0
 24 27  1  0  0  0
 27 28  1  0  0  0
 28 29  1  0  0  0
 29 30  1  0  0  0
 30 31  1  0  0  0
 31 32  1  0  0  0
 32 33  1  0  0  0
 33 34  1  0  0  0
 34 35  1  0  0  0
 24 25  1  0  0  0
 25 26  2  0  0  0
 19 14  1  0  0  0
 11  1  1  0  0  0
 26 21  1  0  0  0
  9  3  1  0  0  0
 35 30  1  0  0  0
 13 20  1  0  0  0
  6 12  1  0  0  0
M  END
> <minimizedAffinity>
11.37709

> <CNNscore>
0.2480670512

> <CNNaffinity>
7.2046232224

> <CNN_VS>
1.7872296572

> <CNNaffinity_variance>
0.3966491520

$$$$
[H]Oc1c([H])c([H])c([C@@]2([H])Sc3c([H])c(O[H])c([H])c([H])c3O[C@@]2([H])c2c([H])c([H])c(OC([H])([H])C([H])([H])N3C([H])([H])C([H])([H])C([H])([H])C([H])([H])C3([H])[H])c([H])c2[H])c([H])c1[H]


 35 39  0  0  0  0  0  0  0  0999 V2000
    8.2273   46.2878  128.5189 C   0  0  0  0  0  0  0  0  0  0  0  0
   10.0163   46.3439  128.2124 S   0  0  0  0  0  0  0  0  0  0  0  0
   10.4751   44.6796  127.8321 C   0  0  0  0  0  0  0  0  0  0  0  0
   11.6070   44.4114  127.1413 C   0  0  0  0  0  0  0  0  0  0  0  0
   11.9763   43.0944  126.8367 C   0  0  0  0  0  0  0  0  0  0  0  0
   13.1183   42.7773  126.1359 O   0  0  0  0  0  0  0  0  0  0  0  0
   11.1605   42.0658  127.2564 C   0  0  0  0  0  0  0  0  0  0  0  0
   10.0090   42.3448  127.9596 C   0  0  0  0  0  0  0  0  0  0  0  0
    9.6636   43.6707  128.2504 C   0  0  0  0  0  0  0  0  0  0  0  0
    8.5142   43.8856  128.9479 O   0  0  0  0  0  0  0  0  0  0  0  0
    7.8655   45.0527  129.2756 C   0  0  0  0  0  0  0  0  0  0  0  0
   13.1580   42.6934  125.1261 H   0  0  0  0  0  0  0  0  0  0  0  0
    5.9702   51.0025  130.7272 O   0  0  0  0  0  0  0  0  0  0  0  0
    6.5471   49.8380  130.1895 C   0  0  0  0  0  0  0  0  0  0  0  0
    5.7686   48.9015  129.5655 C   0  0  0  0  0  0  0  0  0  0  0  0
    6.3531   47.7723  129.0477 C   0  0  0  0  0  0  0  0  0  0  0  0
    7.7061   47.5130  129.1167 C   0  0  0  0  0  0  0  0  0  0  0  0
    8.4836   48.4570  129.7444 C   0  0  0  0  0  0  0  0  0  0  0  0
    7.9047   49.6096  130.2758 C   0  0  0  0  0  0  0  0  0  0  0  0
    5.8736   51.8541  130.1548 H   0  0  0  0  0  0  0  0  0  0  0  0
    7.8923   45.2130  130.7617 C   0  0  0  0  0  0  0  0  0  0  0  0
    8.7601   44.4742  131.5401 C   0  0  0  0  0  0  0  0  0  0  0  0
    8.8065   44.6159  132.9017 C   0  0  0  0  0  0  0  0  0  0  0  0
    7.9736   45.5222  133.5898 C   0  0  0  0  0  0  0  0  0  0  0  0
    7.1133   46.2515  132.8011 C   0  0  0  0  0  0  0  0  0  0  0  0
    7.0747   46.1001  131.4214 C   0  0  0  0  0  0  0  0  0  0  0  0
    8.0837   45.5962  134.9262 O   0  0  0  0  0  0  0  0  0  0  0  0
    8.8614   46.2402  135.8322 C   0  0  0  0  0  0  0  0  0  0  0  0
   10.2731   46.4323  135.3673 C   0  0  0  0  0  0  0  0  0  0  0  0
   10.4162   47.4841  134.3650 N   0  0  0  0  0  0  0  0  0  0  0  0
   10.7338   46.9498  133.0652 C   0  0  0  0  0  0  0  0  0  0  0  0
   10.8462   48.0703  132.0472 C   0  0  0  0  0  0  0  0  0  0  0  0
   10.4970   49.3733  132.7317 C   0  0  0  0  0  0  0  0  0  0  0  0
    9.0799   49.2211  133.2561 C   0  0  0  0  0  0  0  0  0  0  0  0
    9.1146   48.1241  134.2837 C   0  0  0  0  0  0  0  0  0  0  0  0
 13 14  1  0  0  0
 14 15  2  0  0  0
 15 16  1  0  0  0
 16 17  2  0  0  0
 17 18  1  0  0  0
 18 19  2  0  0  0
 17  1  1  0  0  0
  1  2  1  0  0  0
  2  3  1  0  0  0
  3  4  2  0  0  0
  4  5  1  0  0  0
  5  6  1  0  0  0
  5  7  2  0  0  0
  7  8  1  0  0  0
  8  9  2  0  0  0
  9 10  1  0  0  0
 10 11  1  0  0  0
 11 21  1  0  0  0
 21 22  2  0  0  0
 22 23  1  0  0  0
 23 24  2  0  0  0
 24 27  1  0  0  0
 27 28  1  0  0  0
 28 29  1  0  0  0
 29 30  1  0  0  0
 30 31  1  0  0  0
 31 32  1  0  0  0
 32 33  1  0  0  0
 33 34  1  0  0  0
 34 35  1  0  0  0
 24 25  1  0  0  0
 25 26  2  0  0  0
 19 14  1  0  0  0
 11  1  1  0  0  0
 26 21  1  0  0  0
  9  3  1  0  0  0
 35 30  1  0  0  0
 13 20  1  0  0  0
  6 12  1  0  0  0
M  END
> <minimizedAffinity>
11.47447

> <CNNscore>
0.2282505184

> <CNNaffinity>
7.1845941544

> <CNN_VS>
1.6398873329

> <CNNaffinity_variance>
0.3443320692

$$$$
[H]Oc1c([H])c([H])c2c(c1[H])C([H])([H])C([H])([H])[C@]1([H])[C@]2([H])C([H])([H])C([H])([H])[C@]2(C([H])([H])[H])[C@@](C#CC([H])([H])[H])(O[H])C([H])([H])C([H])([H])[C@]21[H]


 25 28  0  0  0  0  0  0  0  0999 V2000
   10.3061   44.2178  129.8000 C   0  0  0  0  0  0  0  0  0  0  0  0
   10.3241   44.3242  131.3004 C   0  0  0  0  0  0  0  0  0  0  0  0
    8.9498   44.2946  131.8405 C   0  0  0  0  0  0  0  0  0  0  0  0
    8.1561   45.3705  131.1118 C   0  0  0  0  0  0  0  0  0  0  0  0
    8.7449   46.7000  131.4388 C   0  0  0  0  0  0  0  0  0  0  0  0
   10.2289   46.7972  131.2242 C   0  0  0  0  0  0  0  0  0  0  0  0
   10.6931   48.0396  131.9591 C   0  0  0  0  0  0  0  0  0  0  0  0
   10.0007   49.2878  131.5314 C   0  0  0  0  0  0  0  0  0  0  0  0
    8.7319   49.0525  130.7812 C   0  0  0  0  0  0  0  0  0  0  0  0
    8.1930   50.1617  130.1286 C   0  0  0  0  0  0  0  0  0  0  0  0
    7.0132   50.0107  129.4126 C   0  0  0  0  0  0  0  0  0  0  0  0
    6.4803   51.1357  128.7596 O   0  0  0  0  0  0  0  0  0  0  0  0
    6.3895   48.7865  129.3502 C   0  0  0  0  0  0  0  0  0  0  0  0
    6.9570   47.6944  130.0164 C   0  0  0  0  0  0  0  0  0  0  0  0
    8.1219   47.8225  130.7291 C   0  0  0  0  0  0  0  0  0  0  0  0
   10.9716   45.6385  131.7623 C   0  0  0  0  0  0  0  0  0  0  0  0
   12.3510   45.4504  131.2370 C   0  0  0  0  0  0  0  0  0  0  0  0
   12.6196   43.9570  131.4318 C   0  0  0  0  0  0  0  0  0  0  0  0
   11.2901   43.3596  131.8929 C   0  0  0  0  0  0  0  0  0  0  0  0
   11.1317   42.0611  131.4412 O   0  0  0  0  0  0  0  0  0  0  0  0
    6.9450   52.0214  128.8134 H   0  0  0  0  0  0  0  0  0  0  0  0
   10.6034   41.4934  132.0346 H   0  0  0  0  0  0  0  0  0  0  0  0
   11.2178   43.4253  133.3641 C   0  0  0  0  0  0  0  0  0  0  0  0
   11.1761   43.4771  134.5703 C   0  0  0  0  0  0  0  0  0  0  0  0
   11.1192   43.5630  136.0436 C   0  0  0  0  0  0  0  0  0  0  0  0
  2  1  1  0  0  0
  2  3  1  0  0  0
  3  4  1  0  0  0
  4  5  1  0  0  0
  5  6  1  0  0  0
  6  7  1  0  0  0
  7  8  1  0  0  0
  8  9  1  0  0  0
  9 10  2  0  0  0
 10 11  1  0  0  0
 11 12  1  0  0  0
 11 13  2  0  0  0
 13 14  1  0  0  0
 14 15  2  0  0  0
  6 16  1  0  0  0
 16 17  1  0  0  0
 17 18  1  0  0  0
 18 19  1  0  0  0
 19 20  1  0  0  0
 19 23  1  0  0  0
 23 24  3  0  0  0
 24 25  1  0  0  0
 16  2  1  0  0  0
 19  2  1  0  0  0
 15  5  1  0  0  0
 15  9  1  0  0  0
 12 21  1  0  0  0
 20 22  1  0  0  0
M  END
> <minimizedAffinity>
-8.45761

> <CNNscore>
0.6632170677

> <CNNaffinity>
8.0558795929

> <CNN_VS>
5.3427968025

> <CNNaffinity_variance>
1.6203424931

$$$$
[H]Oc1c([H])c([H])c2c(c1[H])C([H])([H])C([H])([H])[C@]1([H])[C@]2([H])C([H])([H])C([H])([H])[C@]2(C([H])([H])[H])[C@@](C#CC([H])([H])[H])(O[H])C([H])([H])C([H])([H])[C@]21[H]


 25 28  0  0  0  0  0  0  0  0999 V2000
    9.6565   43.6682  129.4058 C   0  0  0  0  0  0  0  0  0  0  0  0
    9.9431   43.9339  130.8584 C   0  0  0  0  0  0  0  0  0  0  0  0
    8.7097   43.8160  131.6622 C   0  0  0  0  0  0  0  0  0  0  0  0
    7.6651   44.7184  131.0194 C   0  0  0  0  0  0  0  0  0  0  0  0
    8.1345   46.1300  131.1109 C   0  0  0  0  0  0  0  0  0  0  0  0
    9.5277   46.3609  130.5976 C   0  0  0  0  0  0  0  0  0  0  0  0
    9.9633   47.7163  131.1193 C   0  0  0  0  0  0  0  0  0  0  0  0
    9.0526   48.8316  130.7361 C   0  0  0  0  0  0  0  0  0  0  0  0
    7.7047   48.3850  130.2760 C   0  0  0  0  0  0  0  0  0  0  0  0
    6.9185   49.3555  129.6540 C   0  0  0  0  0  0  0  0  0  0  0  0
    5.6533   49.0052  129.2026 C   0  0  0  0  0  0  0  0  0  0  0  0
    4.8709   49.9919  128.5777 O   0  0  0  0  0  0  0  0  0  0  0  0
    5.1866   47.7221  129.3677 C   0  0  0  0  0  0  0  0  0  0  0  0
    6.0011   46.7730  129.9958 C   0  0  0  0  0  0  0  0  0  0  0  0
    7.2541   47.0986  130.4489 C   0  0  0  0  0  0  0  0  0  0  0  0
   10.4970   45.3510  131.0712 C   0  0  0  0  0  0  0  0  0  0  0  0
   11.7653   45.2559  130.2990 C   0  0  0  0  0  0  0  0  0  0  0  0
   12.2499   43.8284  130.5597 C   0  0  0  0  0  0  0  0  0  0  0  0
   11.1160   43.1455  131.3246 C   0  0  0  0  0  0  0  0  0  0  0  0
   11.0385   41.7970  131.0229 O   0  0  0  0  0  0  0  0  0  0  0  0
    5.2233   50.9226  128.4640 H   0  0  0  0  0  0  0  0  0  0  0  0
   10.7064   41.2425  131.7548 H   0  0  0  0  0  0  0  0  0  0  0  0
   11.3142   43.3583  132.7700 C   0  0  0  0  0  0  0  0  0  0  0  0
   11.4743   43.5154  133.9571 C   0  0  0  0  0  0  0  0  0  0  0  0
   11.6925   43.7124  135.4044 C   0  0  0  0  0  0  0  0  0  0  0  0
  2  1  1  0  0  0
  2  3  1  0  0  0
  3  4  1  0  0  0
  4  5  1  0  0  0
  5  6  1  0  0  0
  6  7  1  0  0  0
  7  8  1  0  0  0
  8  9  1  0  0  0
  9 10  2  0  0  0
 10 11  1  0  0  0
 11 12  1  0  0  0
 11 13  2  0  0  0
 13 14  1  0  0  0
 14 15  2  0  0  0
  6 16  1  0  0  0
 16 17  1  0  0  0
 17 18  1  0  0  0
 18 19  1  0  0  0
 19 20  1  0  0  0
 19 23  1  0  0  0
 23 24  3  0  0  0
 24 25  1  0  0  0
 16  2  1  0  0  0
 19  2  1  0  0  0
 15  5  1  0  0  0
 15  9  1  0  0  0
 12 21  1  0  0  0
 20 22  1  0  0  0
M  END
> <minimizedAffinity>
-7.24131

> <CNNscore>
0.5601277351

> <CNNaffinity>
7.5834760666

> <CNN_VS>
4.2477154732

> <CNNaffinity_variance>
0.9469559789

$$$$
[H]Oc1c([H])c([H])c2c(c1[H])C([H])([H])C([H])([H])[C@]1([H])[C@]2([H])C([H])([H])C([H])([H])[C@]2(C([H])([H])[H])[C@@](C#CC([H])([H])[H])(O[H])C([H])([H])C([H])([H])[C@]21[H]


 25 28  0  0  0  0  0  0  0  0999 V2000
    9.4877   47.0484  134.3386 C   0  0  0  0  0  0  0  0  0  0  0  0
    9.8710   45.9255  133.4139 C   0  0  0  0  0  0  0  0  0  0  0  0
   10.9002   46.3712  132.4530 C   0  0  0  0  0  0  0  0  0  0  0  0
   10.3723   47.6305  131.7792 C   0  0  0  0  0  0  0  0  0  0  0  0
    9.1487   47.2785  131.0045 C   0  0  0  0  0  0  0  0  0  0  0  0
    8.1057   46.5318  131.7870 C   0  0  0  0  0  0  0  0  0  0  0  0
    7.1496   45.9326  130.7741 C   0  0  0  0  0  0  0  0  0  0  0  0
    6.5292   46.9353  129.8631 C   0  0  0  0  0  0  0  0  0  0  0  0
    7.2382   48.2485  129.8315 C   0  0  0  0  0  0  0  0  0  0  0  0
    6.5545   49.2975  129.2160 C   0  0  0  0  0  0  0  0  0  0  0  0
    7.1587   50.5459  129.1526 C   0  0  0  0  0  0  0  0  0  0  0  0
    6.4598   51.5946  128.5300 O   0  0  0  0  0  0  0  0  0  0  0  0
    8.4101   50.7407  129.6888 C   0  0  0  0  0  0  0  0  0  0  0  0
    9.0682   49.6669  130.2991 C   0  0  0  0  0  0  0  0  0  0  0  0
    8.4887   48.4258  130.3722 C   0  0  0  0  0  0  0  0  0  0  0  0
    8.6651   45.4319  132.6002 C   0  0  0  0  0  0  0  0  0  0  0  0
    7.7957   44.9288  133.6979 C   0  0  0  0  0  0  0  0  0  0  0  0
    8.7798   44.3184  134.6976 C   0  0  0  0  0  0  0  0  0  0  0  0
   10.1701   44.6834  134.1769 C   0  0  0  0  0  0  0  0  0  0  0  0
   11.0695   44.8665  135.2127 O   0  0  0  0  0  0  0  0  0  0  0  0
    5.5489   51.4387  128.1436 H   0  0  0  0  0  0  0  0  0  0  0  0
   11.9912   44.6366  134.9867 H   0  0  0  0  0  0  0  0  0  0  0  0
   10.6288   43.6310  133.2518 C   0  0  0  0  0  0  0  0  0  0  0  0
   10.9886   42.7614  132.4943 C   0  0  0  0  0  0  0  0  0  0  0  0
   11.4299   41.7142  131.5511 C   0  0  0  0  0  0  0  0  0  0  0  0
  2  1  1  0  0  0
  2  3  1  0  0  0
  3  4  1  0  0  0
  4  5  1  0  0  0
  5  6  1  0  0  0
  6  7  1  0  0  0
  7  8  1  0  0  0
  8  9  1  0  0  0
  9 10  2  0  0  0
 10 11  1  0  0  0
 11 12  1  0  0  0
 11 13  2  0  0  0
 13 14  1  0  0  0
 14 15  2  0  0  0
  6 16  1  0  0  0
 16 17  1  0  0  0
 17 18  1  0  0  0
 18 19  1  0  0  0
 19 20  1  0  0  0
 19 23  1  0  0  0
 23 24  3  0  0  0
 24 25  1  0  0  0
 16  2  1  0  0  0
 19  2  1  0  0  0
 15  5  1  0  0  0
 15  9  1  0  0  0
 12 21  1  0  0  0
 20 22  1  0  0  0
M  END
> <minimizedAffinity>
-5.51986

> <CNNscore>
0.5066000223

> <CNNaffinity>
7.5009088516

> <CNN_VS>
3.7999606133

> <CNNaffinity_variance>
0.9749242663

$$$$
[H]Oc1c([H])c([H])c2c(c1[H])C([H])([H])C([H])([H])[C@]1([H])[C@]2([H])C([H])([H])C([H])([H])[C@]2(C([H])([H])[H])[C@@](C#CC([H])([H])[H])(O[H])C([H])([H])C([H])([H])[C@]21[H]


 25 28  0  0  0  0  0  0  0  0999 V2000
    9.6199   46.5681  133.7831 C   0  0  0  0  0  0  0  0  0  0  0  0
   10.4702   46.1384  132.6189 C   0  0  0  0  0  0  0  0  0  0  0  0
   11.0394   47.3135  131.9286 C   0  0  0  0  0  0  0  0  0  0  0  0
    9.8813   48.2434  131.5928 C   0  0  0  0  0  0  0  0  0  0  0  0
    8.9750   47.5483  130.6354 C   0  0  0  0  0  0  0  0  0  0  0  0
    8.5399   46.1769  131.0687 C   0  0  0  0  0  0  0  0  0  0  0  0
    7.9735   45.4929  129.8397 C   0  0  0  0  0  0  0  0  0  0  0  0
    6.8553   46.2381  129.1958 C   0  0  0  0  0  0  0  0  0  0  0  0
    6.7624   47.6698  129.6075 C   0  0  0  0  0  0  0  0  0  0  0  0
    5.5873   48.3329  129.2525 C   0  0  0  0  0  0  0  0  0  0  0  0
    5.4374   49.6672  129.6054 C   0  0  0  0  0  0  0  0  0  0  0  0
    4.2490   50.3242  129.2420 O   0  0  0  0  0  0  0  0  0  0  0  0
    6.4332   50.3205  130.2933 C   0  0  0  0  0  0  0  0  0  0  0  0
    7.5993   49.6258  130.6339 C   0  0  0  0  0  0  0  0  0  0  0  0
    7.7669   48.3074  130.2947 C   0  0  0  0  0  0  0  0  0  0  0  0
    9.6506   45.3505  131.5857 C   0  0  0  0  0  0  0  0  0  0  0  0
    9.2569   44.1729  132.4057 C   0  0  0  0  0  0  0  0  0  0  0  0
   10.4829   43.9062  133.2809 C   0  0  0  0  0  0  0  0  0  0  0  0
   11.4317   45.0767  133.0226 C   0  0  0  0  0  0  0  0  0  0  0  0
   12.1708   45.3911  134.1496 O   0  0  0  0  0  0  0  0  0  0  0  0
    3.5319   49.8362  128.7410 H   0  0  0  0  0  0  0  0  0  0  0  0
   13.0567   45.7542  133.9579 H   0  0  0  0  0  0  0  0  0  0  0  0
   12.3088   44.7430  131.8853 C   0  0  0  0  0  0  0  0  0  0  0  0
   13.0133   44.4703  130.9426 C   0  0  0  0  0  0  0  0  0  0  0  0
   13.8850   44.1579  129.7921 C   0  0  0  0  0  0  0  0  0  0  0  0
  2  1  1  0  0  0
  2  3  1  0  0  0
  3  4  1  0  0  0
  4  5  1  0  0  0
  5  6  1  0  0  0
  6  7  1  0  0  0
  7  8  1  0  0  0
  8  9  1  0  0  0
  9 10  2  0  0  0
 10 11  1  0  0  0
 11 12  1  0  0  0
 11 13  2  0  0  0
 13 14  1  0  0  0
 14 15  2  0  0  0
  6 16  1  0  0  0
 16 17  1  0  0  0
 17 18  1  0  0  0
 18 19  1  0  0  0
 19 20  1  0  0  0
 19 23  1  0  0  0
 23 24  3  0  0  0
 24 25  1  0  0  0
 16  2  1  0  0  0
 19  2  1  0  0  0
 15  5  1  0  0  0
 15  9  1  0  0  0
 12 21  1  0  0  0
 20 22  1  0  0  0
M  END
> <minimizedAffinity>
-7.77735

> <CNNscore>
0.4794793427

> <CNNaffinity>
7.3748521805

> <CNN_VS>
3.5360891819

> <CNNaffinity_variance>
0.7436286807

$$$$
[H]Oc1c([H])c([H])c2c(c1[H])C([H])([H])C([H])([H])[C@]1([H])[C@]2([H])C([H])([H])C([H])([H])[C@]2(C([H])([H])[H])[C@@](C#CC([H])([H])[H])(O[H])C([H])([H])C([H])([H])[C@]21[H]


 25 28  0  0  0  0  0  0  0  0999 V2000
    8.4006   44.6423  129.5566 C   0  0  0  0  0  0  0  0  0  0  0  0
    9.9046   44.6551  129.5308 C   0  0  0  0  0  0  0  0  0  0  0  0
   10.4512   44.0909  130.7815 C   0  0  0  0  0  0  0  0  0  0  0  0
    9.8042   44.8440  131.9360 C   0  0  0  0  0  0  0  0  0  0  0  0
   10.2180   46.2739  131.8630 C   0  0  0  0  0  0  0  0  0  0  0  0
   10.0001   46.9210  130.5246 C   0  0  0  0  0  0  0  0  0  0  0  0
   10.8157   48.1992  130.5226 C   0  0  0  0  0  0  0  0  0  0  0  0
   10.4802   49.1308  131.6362 C   0  0  0  0  0  0  0  0  0  0  0  0
    9.7245   48.4938  132.7548 C   0  0  0  0  0  0  0  0  0  0  0  0
    9.1540   49.3665  133.6819 C   0  0  0  0  0  0  0  0  0  0  0  0
    8.4376   48.8382  134.7474 C   0  0  0  0  0  0  0  0  0  0  0  0
    7.8677   49.7277  135.6747 O   0  0  0  0  0  0  0  0  0  0  0  0
    8.2953   47.4770  134.8828 C   0  0  0  0  0  0  0  0  0  0  0  0
    8.8805   46.6298  133.9349 C   0  0  0  0  0  0  0  0  0  0  0  0
    9.5920   47.1316  132.8750 C   0  0  0  0  0  0  0  0  0  0  0  0
   10.4516   46.0841  129.3933 C   0  0  0  0  0  0  0  0  0  0  0  0
    9.9048   46.4472  128.0580 C   0  0  0  0  0  0  0  0  0  0  0  0
    9.9940   45.1470  127.2568 C   0  0  0  0  0  0  0  0  0  0  0  0
   10.4223   44.0769  128.2610 C   0  0  0  0  0  0  0  0  0  0  0  0
    9.8831   42.8411  127.9489 O   0  0  0  0  0  0  0  0  0  0  0  0
    7.9792   50.7170  135.5639 H   0  0  0  0  0  0  0  0  0  0  0  0
   10.4396   42.0840  128.2143 H   0  0  0  0  0  0  0  0  0  0  0  0
   11.8950   44.0207  128.3054 C   0  0  0  0  0  0  0  0  0  0  0  0
   13.1006   43.9597  128.3513 C   0  0  0  0  0  0  0  0  0  0  0  0
   14.5749   43.8806  128.3844 C   0  0  0  0  0  0  0  0  0  0  0  0
  2  1  1  0  0  0
  2  3  1  0  0  0
  3  4  1  0  0  0
  4  5  1  0  0  0
  5  6  1  0  0  0
  6  7  1  0  0  0
  7  8  1  0  0  0
  8  9  1  0  0  0
  9 10  2  0  0  0
 10 11  1  0  0  0
 11 12  1  0  0  0
 11 13  2  0  0  0
 13 14  1  0  0  0
 14 15  2  0  0  0
  6 16  1  0  0  0
 16 17  1  0  0  0
 17 18  1  0  0  0
 18 19  1  0  0  0
 19 20  1  0  0  0
 19 23  1  0  0  0
 23 24  3  0  0  0
 24 25  1  0  0  0
 16  2  1  0  0  0
 19  2  1  0  0  0
 15  5  1  0  0  0
 15  9  1  0  0  0
 12 21  1  0  0  0
 20 22  1  0  0  0
M  END
> <minimizedAffinity>
6.99787

> <CNNscore>
0.4708450437

> <CNNaffinity>
7.0862541199

> <CNN_VS>
3.3365275860

> <CNNaffinity_variance>
2.1669268608

$$$$
[H]Oc1c([H])c([H])c2c(c1[H])C([H])([H])C([H])([H])[C@]1([H])[C@]2([H])C([H])([H])C([H])([H])[C@]2(C([H])([H])[H])[C@@](C#CC([H])([H])[H])(O[H])C([H])([H])C([H])([H])[C@]21[H]


 25 28  0  0  0  0  0  0  0  0999 V2000
    8.8366   42.8677  132.7481 C   0  0  0  0  0  0  0  0  0  0  0  0
    9.8735   43.5526  131.9002 C   0  0  0  0  0  0  0  0  0  0  0  0
   11.1073   43.7889  132.6769 C   0  0  0  0  0  0  0  0  0  0  0  0
   10.7052   44.5223  133.9493 C   0  0  0  0  0  0  0  0  0  0  0  0
   10.1419   45.8505  133.5752 C   0  0  0  0  0  0  0  0  0  0  0  0
    9.0540   45.7998  132.5400 C   0  0  0  0  0  0  0  0  0  0  0  0
    8.8895   47.2123  132.0139 C   0  0  0  0  0  0  0  0  0  0  0  0
    8.5861   48.2183  133.0704 C   0  0  0  0  0  0  0  0  0  0  0  0
    8.8928   47.7559  134.4561 C   0  0  0  0  0  0  0  0  0  0  0  0
    8.3800   48.5403  135.4898 C   0  0  0  0  0  0  0  0  0  0  0  0
    8.6294   48.1654  136.8030 C   0  0  0  0  0  0  0  0  0  0  0  0
    8.1074   48.9638  137.8355 O   0  0  0  0  0  0  0  0  0  0  0  0
    9.3700   47.0391  137.0759 C   0  0  0  0  0  0  0  0  0  0  0  0
    9.8696   46.2747  136.0154 C   0  0  0  0  0  0  0  0  0  0  0  0
    9.6344   46.6278  134.7110 C   0  0  0  0  0  0  0  0  0  0  0  0
    9.3769   44.9174  131.3994 C   0  0  0  0  0  0  0  0  0  0  0  0
    8.2231   44.4868  130.5645 C   0  0  0  0  0  0  0  0  0  0  0  0
    8.6972   43.1801  129.9257 C   0  0  0  0  0  0  0  0  0  0  0  0
   10.0356   42.8617  130.5922 C   0  0  0  0  0  0  0  0  0  0  0  0
   10.2375   41.4969  130.7023 O   0  0  0  0  0  0  0  0  0  0  0  0
    7.5697   49.7816  137.6225 H   0  0  0  0  0  0  0  0  0  0  0  0
   11.1751   41.2275  130.6636 H   0  0  0  0  0  0  0  0  0  0  0  0
   11.1197   43.5011  129.8242 C   0  0  0  0  0  0  0  0  0  0  0  0
   12.0037   44.0407  129.2023 C   0  0  0  0  0  0  0  0  0  0  0  0
   13.1002   44.6888  128.4548 C   0  0  0  0  0  0  0  0  0  0  0  0
  2  1  1  0  0  0
  2  3  1  0  0  0
  3  4  1  0  0  0
  4  5  1  0  0  0
  5  6  1  0  0  0
  6  7  1  0  0  0
  7  8  1  0  0  0
  8  9  1  0  0  0
  9 10  2  0  0  0
 10 11  1  0  0  0
 11 12  1  0  0  0
 11 13  2  0  0  0
 13 14  1  0  0  0
 14 15  2  0  0  0
  6 16  1  0  0  0
 16 17  1  0  0  0
 17 18  1  0  0  0
 18 19  1  0  0  0
 19 20  1  0  0  0
 19 23  1  0  0  0
 23 24  3  0  0  0
 24 25  1  0  0  0
 16  2  1  0  0  0
 19  2  1  0  0  0
 15  5  1  0  0  0
 15  9  1  0  0  0
 12 21  1  0  0  0
 20 22  1  0  0  0
M  END
> <minimizedAffinity>
8.13064

> <CNNscore>
0.4417999685

> <CNNaffinity>
7.1491279602

> <CNN_VS>
3.1584844589

> <CNNaffinity_variance>
1.1096323729

$$$$
[H]Oc1c([H])c([H])c2c(c1[H])C([H])([H])C([H])([H])[C@]1([H])[C@]2([H])C([H])([H])C([H])([H])[C@]2(C([H])([H])[H])[C@@](C#CC([H])([H])[H])(O[H])C([H])([H])C([H])([H])[C@]21[H]


 25 28  0  0  0  0  0  0  0  0999 V2000
   10.3326   42.6561  132.6135 C   0  0  0  0  0  0  0  0  0  0  0  0
   10.3273   43.3463  131.2768 C   0  0  0  0  0  0  0  0  0  0  0  0
   11.6990   43.7249  130.8813 C   0  0  0  0  0  0  0  0  0  0  0  0
   12.2964   44.5214  132.0334 C   0  0  0  0  0  0  0  0  0  0  0  0
   11.5095   45.7756  132.2034 C   0  0  0  0  0  0  0  0  0  0  0  0
   10.0251   45.5725  132.3176 C   0  0  0  0  0  0  0  0  0  0  0  0
    9.3830   46.9270  132.0897 C   0  0  0  0  0  0  0  0  0  0  0  0
    9.8588   47.9855  133.0244 C   0  0  0  0  0  0  0  0  0  0  0  0
   11.1340   47.6500  133.7240 C   0  0  0  0  0  0  0  0  0  0  0  0
   11.4761   48.4717  134.7985 C   0  0  0  0  0  0  0  0  0  0  0  0
   12.6506   48.2139  135.4923 C   0  0  0  0  0  0  0  0  0  0  0  0
   12.9843   49.0489  136.5728 O   0  0  0  0  0  0  0  0  0  0  0  0
   13.4603   47.1653  135.1234 C   0  0  0  0  0  0  0  0  0  0  0  0
   13.0876   46.3606  134.0407 C   0  0  0  0  0  0  0  0  0  0  0  0
   11.9313   46.5983  133.3422 C   0  0  0  0  0  0  0  0  0  0  0  0
    9.4875   44.6321  131.3124 C   0  0  0  0  0  0  0  0  0  0  0  0
    8.1458   44.0614  131.6091 C   0  0  0  0  0  0  0  0  0  0  0  0
    8.1228   42.7468  130.8270 C   0  0  0  0  0  0  0  0  0  0  0  0
    9.5394   42.5727  130.2791 C   0  0  0  0  0  0  0  0  0  0  0  0
    9.8942   41.2373  130.2007 O   0  0  0  0  0  0  0  0  0  0  0  0
   12.3853   49.8092  136.8308 H   0  0  0  0  0  0  0  0  0  0  0  0
   10.5178   41.0315  129.4781 H   0  0  0  0  0  0  0  0  0  0  0  0
    9.6291   43.2269  128.9608 C   0  0  0  0  0  0  0  0  0  0  0  0
    9.7048   43.7786  127.8888 C   0  0  0  0  0  0  0  0  0  0  0  0
    9.8179   44.4424  126.5744 C   0  0  0  0  0  0  0  0  0  0  0  0
  2  1  1  0  0  0
  2  3  1  0  0  0
  3  4  1  0  0  0
  4  5  1  0  0  0
  5  6  1  0  0  0
  6  7  1  0  0  0
  7  8  1  0  0  0
  8  9  1  0  0  0
  9 10  2  0  0  0
 10 11  1  0  0  0
 11 12  1  0  0  0
 11 13  2  0  0  0
 13 14  1  0  0  0
 14 15  2  0  0  0
  6 16  1  0  0  0
 16 17  1  0  0  0
 17 18  1  0  0  0
 18 19  1  0  0  0
 19 20  1  0  0  0
 19 23  1  0  0  0
 23 24  3  0  0  0
 24 25  1  0  0  0
 16  2  1  0  0  0
 19  2  1  0  0  0
 15  5  1  0  0  0
 15  9  1  0  0  0
 12 21  1  0  0  0
 20 22  1  0  0  0
M  END
> <minimizedAffinity>
8.03876

> <CNNscore>
0.4267069399

> <CNNaffinity>
6.9568605423

> <CNN_VS>
2.9685406685

> <CNNaffinity_variance>
1.2604020834

$$$$
[H]Oc1c([H])c([H])c2c(c1[H])C([H])([H])C([H])([H])[C@]1([H])[C@]2([H])C([H])([H])C([H])([H])[C@]2(C([H])([H])[H])[C@@](C#CC([H])([H])[H])(O[H])C([H])([H])C([H])([H])[C@]21[H]


 25 28  0  0  0  0  0  0  0  0999 V2000
    9.6481   46.0038  128.8798 C   0  0  0  0  0  0  0  0  0  0  0  0
    9.6494   44.5740  129.3473 C   0  0  0  0  0  0  0  0  0  0  0  0
    8.6228   44.3662  130.3885 C   0  0  0  0  0  0  0  0  0  0  0  0
    8.8574   45.4142  131.4681 C   0  0  0  0  0  0  0  0  0  0  0  0
   10.1903   45.1686  132.0881 C   0  0  0  0  0  0  0  0  0  0  0  0
   11.3235   45.0487  131.1088 C   0  0  0  0  0  0  0  0  0  0  0  0
   12.4835   44.4265  131.8615 C   0  0  0  0  0  0  0  0  0  0  0  0
   12.8937   45.1882  133.0747 C   0  0  0  0  0  0  0  0  0  0  0  0
   11.8714   46.1647  133.5538 C   0  0  0  0  0  0  0  0  0  0  0  0
   12.3059   47.0860  134.5073 C   0  0  0  0  0  0  0  0  0  0  0  0
   11.4040   48.0221  134.9949 C   0  0  0  0  0  0  0  0  0  0  0  0
   11.8538   48.9448  135.9553 O   0  0  0  0  0  0  0  0  0  0  0  0
   10.1052   48.0374  134.5429 C   0  0  0  0  0  0  0  0  0  0  0  0
    9.7022   47.0991  133.5859 C   0  0  0  0  0  0  0  0  0  0  0  0
   10.5776   46.1661  133.0914 C   0  0  0  0  0  0  0  0  0  0  0  0
   11.0055   44.1830  129.9541 C   0  0  0  0  0  0  0  0  0  0  0  0
   11.8820   44.3420  128.7623 C   0  0  0  0  0  0  0  0  0  0  0  0
   11.0123   43.8639  127.5982 C   0  0  0  0  0  0  0  0  0  0  0  0
    9.6230   43.6345  128.1935 C   0  0  0  0  0  0  0  0  0  0  0  0
    8.6244   43.9058  127.2746 O   0  0  0  0  0  0  0  0  0  0  0  0
   12.8025   48.9223  136.2757 H   0  0  0  0  0  0  0  0  0  0  0  0
    7.8168   43.3698  127.3925 H   0  0  0  0  0  0  0  0  0  0  0  0
    9.5333   42.2473  128.6851 C   0  0  0  0  0  0  0  0  0  0  0  0
    9.4731   41.1062  129.0770 C   0  0  0  0  0  0  0  0  0  0  0  0
    9.4076   39.7181  129.5769 C   0  0  0  0  0  0  0  0  0  0  0  0
  2  1  1  0  0  0
  2  3  1  0  0  0
  3  4  1  0  0  0
  4  5  1  0  0  0
  5  6  1  0  0  0
  6  7  1  0  0  0
  7  8  1  0  0  0
  8  9  1  0  0  0
  9 10  2  0  0  0
 10 11  1  0  0  0
 11 12  1  0  0  0
 11 13  2  0  0  0
 13 14  1  0  0  0
 14 15  2  0  0  0
  6 16  1  0  0  0
 16 17  1  0  0  0
 17 18  1  0  0  0
 18 19  1  0  0  0
 19 20  1  0  0  0
 19 23  1  0  0  0
 23 24  3  0  0  0
 24 25  1  0  0  0
 16  2  1  0  0  0
 19  2  1  0  0  0
 15  5  1  0  0  0
 15  9  1  0  0  0
 12 21  1  0  0  0
 20 22  1  0  0  0
M  END
> <minimizedAffinity>
11.07575

> <CNNscore>
0.4244121015

> <CNNaffinity>
6.9972214699

> <CNN_VS>
2.9697055817

> <CNNaffinity_variance>
2.0177216530

$$$$
[H]Oc1c([H])c([H])c2c(c1[H])C([H])([H])C([H])([H])[C@]1([H])[C@]2([H])C([H])([H])C([H])([H])[C@]2(C([H])([H])[H])[C@@](C#CC([H])([H])[H])(O[H])C([H])([H])C([H])([H])[C@]21[H]


 25 28  0  0  0  0  0  0  0  0999 V2000
    7.3283   44.9698  130.2809 C   0  0  0  0  0  0  0  0  0  0  0  0
    8.8035   44.8475  130.0132 C   0  0  0  0  0  0  0  0  0  0  0  0
    9.4400   43.9563  131.0041 C   0  0  0  0  0  0  0  0  0  0  0  0
    9.0602   44.4737  132.3849 C   0  0  0  0  0  0  0  0  0  0  0  0
    9.6403   45.8355  132.5590 C   0  0  0  0  0  0  0  0  0  0  0  0
    9.3252   46.7968  131.4480 C   0  0  0  0  0  0  0  0  0  0  0  0
   10.2901   47.9575  131.5918 C   0  0  0  0  0  0  0  0  0  0  0  0
   10.2335   48.6281  132.9213 C   0  0  0  0  0  0  0  0  0  0  0  0
    9.5635   47.8194  133.9820 C   0  0  0  0  0  0  0  0  0  0  0  0
    9.2429   48.4989  135.1577 C   0  0  0  0  0  0  0  0  0  0  0  0
    8.6182   47.8041  136.1846 C   0  0  0  0  0  0  0  0  0  0  0  0
    8.3003   48.4998  137.3640 O   0  0  0  0  0  0  0  0  0  0  0  0
    8.3222   46.4688  136.0411 C   0  0  0  0  0  0  0  0  0  0  0  0
    8.6576   45.8175  134.8487 C   0  0  0  0  0  0  0  0  0  0  0  0
    9.2749   46.4857  133.8221 C   0  0  0  0  0  0  0  0  0  0  0  0
    9.5054   46.2111  130.1033 C   0  0  0  0  0  0  0  0  0  0  0  0
    8.8312   46.9277  128.9871 C   0  0  0  0  0  0  0  0  0  0  0  0
    8.6415   45.8500  127.9179 C   0  0  0  0  0  0  0  0  0  0  0  0
    9.0628   44.5385  128.5807 C   0  0  0  0  0  0  0  0  0  0  0  0
    8.3316   43.4668  128.0989 O   0  0  0  0  0  0  0  0  0  0  0  0
    8.5217   49.4725  137.4550 H   0  0  0  0  0  0  0  0  0  0  0  0
    8.8174   42.6198  128.0981 H   0  0  0  0  0  0  0  0  0  0  0  0
   10.5081   44.3358  128.3705 C   0  0  0  0  0  0  0  0  0  0  0  0
   11.6915   44.1552  128.2084 C   0  0  0  0  0  0  0  0  0  0  0  0
   13.1342   43.9294  127.9877 C   0  0  0  0  0  0  0  0  0  0  0  0
  2  1  1  0  0  0
  2  3  1  0  0  0
  3  4  1  0  0  0
  4  5  1  0  0  0
  5  6  1  0  0  0
  6  7  1  0  0  0
  7  8  1  0  0  0
  8  9  1  0  0  0
  9 10  2  0  0  0
 10 11  1  0  0  0
 11 12  1  0  0  0
 11 13  2  0  0  0
 13 14  1  0  0  0
 14 15  2  0  0  0
  6 16  1  0  0  0
 16 17  1  0  0  0
 17 18  1  0  0  0
 18 19  1  0  0  0
 19 20  1  0  0  0
 19 23  1  0  0  0
 23 24  3  0  0  0
 24 25  1  0  0  0
 16  2  1  0  0  0
 19  2  1  0  0  0
 15  5  1  0  0  0
 15  9  1  0  0  0
 12 21  1  0  0  0
 20 22  1  0  0  0
M  END
> <minimizedAffinity>
10.08667

> <CNNscore>
0.4177731872

> <CNNaffinity>
7.2692766190

> <CNN_VS>
3.0369088650

> <CNNaffinity_variance>
2.5167500973

$$$$
[H]Oc1c([H])c([H])c([C@@]2([H])Oc3c([H])c(O[H])c([H])c([H])c3O[C@@]2([H])c2c([H])c([H])c(OC([H])([H])[C@@]([H])(N3C([H])([H])C([H])([H])C([H])([H])C3([H])[H])C([H])([H])[H])c([H])c2[H])c([H])c1[H]


 35 39  0  0  0  0  0  0  0  0999 V2000
    7.7741   45.7674  131.5870 C   0  0  0  0  0  0  0  0  0  0  0  0
    7.3190   46.1790  130.3168 O   0  0  0  0  0  0  0  0  0  0  0  0
    7.2538   47.4895  129.8759 C   0  0  0  0  0  0  0  0  0  0  0  0
    6.6962   47.8363  128.6609 C   0  0  0  0  0  0  0  0  0  0  0  0
    6.6504   49.1655  128.2540 C   0  0  0  0  0  0  0  0  0  0  0  0
    7.1569   50.1763  129.0444 C   0  0  0  0  0  0  0  0  0  0  0  0
    7.0824   51.4798  128.5847 O   0  0  0  0  0  0  0  0  0  0  0  0
    7.7053   49.7991  130.2484 C   0  0  0  0  0  0  0  0  0  0  0  0
    7.7668   48.5036  130.6794 C   0  0  0  0  0  0  0  0  0  0  0  0
    8.3088   48.0971  131.8764 O   0  0  0  0  0  0  0  0  0  0  0  0
    7.7891   46.9411  132.4958 C   0  0  0  0  0  0  0  0  0  0  0  0
    6.3071   52.1020  128.7617 H   0  0  0  0  0  0  0  0  0  0  0  0
    8.3835   46.6927  133.8172 C   0  0  0  0  0  0  0  0  0  0  0  0
    8.4995   45.4142  134.3138 C   0  0  0  0  0  0  0  0  0  0  0  0
    9.0636   45.1839  135.5773 C   0  0  0  0  0  0  0  0  0  0  0  0
    9.5139   46.2177  136.3514 C   0  0  0  0  0  0  0  0  0  0  0  0
   10.0758   45.9668  137.6143 O   0  0  0  0  0  0  0  0  0  0  0  0
    9.3974   47.4990  135.8531 C   0  0  0  0  0  0  0  0  0  0  0  0
    8.8392   47.7228  134.6039 C   0  0  0  0  0  0  0  0  0  0  0  0
   10.4001   46.7414  138.1667 H   0  0  0  0  0  0  0  0  0  0  0  0
   11.5639   43.7086  131.2032 C   0  0  0  0  0  0  0  0  0  0  0  0
   10.3684   43.0665  130.9824 C   0  0  0  0  0  0  0  0  0  0  0  0
    9.1437   43.7160  131.1026 C   0  0  0  0  0  0  0  0  0  0  0  0
    9.0549   45.0417  131.4493 C   0  0  0  0  0  0  0  0  0  0  0  0
   10.2601   45.6848  131.6699 C   0  0  0  0  0  0  0  0  0  0  0  0
   11.4681   45.0696  131.5584 C   0  0  0  0  0  0  0  0  0  0  0  0
   12.8064   43.1427  131.1091 O   0  0  0  0  0  0  0  0  0  0  0  0
   13.9333   43.4302  130.4117 C   0  0  0  0  0  0  0  0  0  0  0  0
   14.6176   45.0188  128.6670 C   0  0  0  0  0  0  0  0  0  0  0  0
   13.6594   43.8756  129.0082 C   0  0  0  0  0  0  0  0  0  0  0  0
   12.3151   44.3812  128.8445 N   0  0  0  0  0  0  0  0  0  0  0  0
   12.2036   45.7790  128.6434 C   0  0  0  0  0  0  0  0  0  0  0  0
   10.7790   45.9690  128.1700 C   0  0  0  0  0  0  0  0  0  0  0  0
   10.3028   44.6062  127.7434 C   0  0  0  0  0  0  0  0  0  0  0  0
   11.4994   43.6790  127.9239 C   0  0  0  0  0  0  0  0  0  0  0  0
 29 30  1  0  0  0
 30 28  1  0  0  0
 28 27  1  0  0  0
 27 21  1  0  0  0
 21 22  2  0  0  0
 22 23  1  0  0  0
 23 24  2  0  0  0
 24 25  1  0  0  0
 25 26  2  0  0  0
 24  1  1  0  0  0
  1  2  1  0  0  0
  2  3  1  0  0  0
  3  4  2  0  0  0
  4  5  1  0  0  0
  5  6  2  0  0  0
  6  7  1  0  0  0
  6  8  1  0  0  0
  8  9  2  0  0  0
  9 10  1  0  0  0
 10 11  1  0  0  0
 11 13  1  0  0  0
 13 14  2  0  0  0
 14 15  1  0  0  0
 15 16  2  0  0  0
 16 17  1  0  0  0
 16 18  1  0  0  0
 18 19  2  0  0  0
 30 31  1  0  0  0
 31 32  1  0  0  0
 32 33  1  0  0  0
 33 34  1  0  0  0
 34 35  1  0  0  0
 26 21  1  0  0  0
 11  1  1  0  0  0
 19 13  1  0  0  0
 35 31  1  0  0  0
  9  3  1  0  0  0
  7 12  1  0  0  0
 17 20  1  0  0  0
M  END
> <minimizedAffinity>
5.84125

> <CNNscore>
0.4081354141

> <CNNaffinity>
7.5664291382

> <CNN_VS>
3.0881276131

> <CNNaffinity_variance>
0.5809695721

$$$$
[H]Oc1c([H])c([H])c([C@@]2([H])Oc3c([H])c(O[H])c([H])c([H])c3O[C@@]2([H])c2c([H])c([H])c(OC([H])([H])[C@@]([H])(N3C([H])([H])C([H])([H])C([H])([H])C3([H])[H])C([H])([H])[H])c([H])c2[H])c([H])c1[H]


 35 39  0  0  0  0  0  0  0  0999 V2000
    9.2819   44.2991  132.2284 C   0  0  0  0  0  0  0  0  0  0  0  0
    8.5641   44.5495  133.4167 O   0  0  0  0  0  0  0  0  0  0  0  0
    8.9935   45.3564  134.4562 C   0  0  0  0  0  0  0  0  0  0  0  0
    8.2936   45.4748  135.6409 C   0  0  0  0  0  0  0  0  0  0  0  0
    8.7589   46.2971  136.6615 C   0  0  0  0  0  0  0  0  0  0  0  0
    9.9274   47.0179  136.5268 C   0  0  0  0  0  0  0  0  0  0  0  0
   10.3386   47.8192  137.5778 O   0  0  0  0  0  0  0  0  0  0  0  0
   10.6017   46.8787  135.3357 C   0  0  0  0  0  0  0  0  0  0  0  0
   10.1736   46.0802  134.3125 C   0  0  0  0  0  0  0  0  0  0  0  0
   10.8259   45.9218  133.1118 O   0  0  0  0  0  0  0  0  0  0  0  0
   10.6989   44.6930  132.4307 C   0  0  0  0  0  0  0  0  0  0  0  0
   10.9384   47.5092  138.3286 H   0  0  0  0  0  0  0  0  0  0  0  0
   11.5375   44.6263  131.2252 C   0  0  0  0  0  0  0  0  0  0  0  0
   11.1074   45.1596  130.0313 C   0  0  0  0  0  0  0  0  0  0  0  0
   11.9104   45.0889  128.8834 C   0  0  0  0  0  0  0  0  0  0  0  0
   13.1400   44.4907  128.9145 C   0  0  0  0  0  0  0  0  0  0  0  0
   13.9296   44.4298  127.7540 O   0  0  0  0  0  0  0  0  0  0  0  0
   13.5707   43.9564  130.1114 C   0  0  0  0  0  0  0  0  0  0  0  0
   12.7743   44.0281  131.2439 C   0  0  0  0  0  0  0  0  0  0  0  0
   14.8300   43.9853  127.7993 H   0  0  0  0  0  0  0  0  0  0  0  0
    7.2291   46.2059  128.9272 C   0  0  0  0  0  0  0  0  0  0  0  0
    8.0945   45.1560  128.7290 C   0  0  0  0  0  0  0  0  0  0  0  0
    8.7608   44.5346  129.7807 C   0  0  0  0  0  0  0  0  0  0  0  0
    8.5932   44.9331  131.0841 C   0  0  0  0  0  0  0  0  0  0  0  0
    7.7211   45.9895  131.2797 C   0  0  0  0  0  0  0  0  0  0  0  0
    7.0597   46.6115  130.2668 C   0  0  0  0  0  0  0  0  0  0  0  0
    6.5397   46.8711  127.9499 O   0  0  0  0  0  0  0  0  0  0  0  0
    6.0794   48.1382  127.8037 C   0  0  0  0  0  0  0  0  0  0  0  0
    4.8994   49.9692  128.9400 C   0  0  0  0  0  0  0  0  0  0  0  0
    5.9540   48.8725  129.1031 C   0  0  0  0  0  0  0  0  0  0  0  0
    7.1874   49.5194  129.4901 N   0  0  0  0  0  0  0  0  0  0  0  0
    7.2802   49.9039  130.8504 C   0  0  0  0  0  0  0  0  0  0  0  0
    8.7474   50.2199  131.0430 C   0  0  0  0  0  0  0  0  0  0  0  0
    9.4589   49.5956  129.8726 C   0  0  0  0  0  0  0  0  0  0  0  0
    8.3786   48.8778  129.0716 C   0  0  0  0  0  0  0  0  0  0  0  0
 29 30  1  0  0  0
 30 28  1  0  0  0
 28 27  1  0  0  0
 27 21  1  0  0  0
 21 22  2  0  0  0
 22 23  1  0  0  0
 23 24  2  0  0  0
 24 25  1  0  0  0
 25 26  2  0  0  0
 24  1  1  0  0  0
  1  2  1  0  0  0
  2  3  1  0  0  0
  3  4  2  0  0  0
  4  5  1  0  0  0
  5  6  2  0  0  0
  6  7  1  0  0  0
  6  8  1  0  0  0
  8  9  2  0  0  0
  9 10  1  0  0  0
 10 11  1  0  0  0
 11 13  1  0  0  0
 13 14  2  0  0  0
 14 15  1  0  0  0
 15 16  2  0  0  0
 16 17  1  0  0  0
 16 18  1  0  0  0
 18 19  2  0  0  0
 30 31  1  0  0  0
 31 32  1  0  0  0
 32 33  1  0  0  0
 33 34  1  0  0  0
 34 35  1  0  0  0
 26 21  1  0  0  0
 11  1  1  0  0  0
 19 13  1  0  0  0
 35 31  1  0  0  0
  9  3  1  0  0  0
  7 12  1  0  0  0
 17 20  1  0  0  0
M  END
> <minimizedAffinity>
11.20002

> <CNNscore>
0.3740292490

> <CNNaffinity>
7.3842878342

> <CNN_VS>
2.7619395256

> <CNNaffinity_variance>
1.1279491186

$$$$
[H]Oc1c([H])c([H])c([C@@]2([H])Oc3c([H])c(O[H])c([H])c([H])c3O[C@@]2([H])c2c([H])c([H])c(OC([H])([H])[C@@]([H])(N3C([H])([H])C([H])([H])C([H])([H])C3([H])[H])C([H])([H])[H])c([H])c2[H])c([H])c1[H]


 35 39  0  0  0  0  0  0  0  0999 V2000
    8.0213   44.6768  131.2368 C   0  0  0  0  0  0  0  0  0  0  0  0
    7.5069   44.9990  132.5102 O   0  0  0  0  0  0  0  0  0  0  0  0
    8.2655   45.2304  133.6446 C   0  0  0  0  0  0  0  0  0  0  0  0
    7.6982   45.4344  134.8872 C   0  0  0  0  0  0  0  0  0  0  0  0
    8.4960   45.6644  136.0030 C   0  0  0  0  0  0  0  0  0  0  0  0
    9.8719   45.6965  135.9079 C   0  0  0  0  0  0  0  0  0  0  0  0
   10.6118   45.9301  137.0541 O   0  0  0  0  0  0  0  0  0  0  0  0
   10.4066   45.4897  134.6573 C   0  0  0  0  0  0  0  0  0  0  0  0
    9.6531   45.2610  133.5403 C   0  0  0  0  0  0  0  0  0  0  0  0
   10.1594   45.0516  132.2786 O   0  0  0  0  0  0  0  0  0  0  0  0
    9.4317   44.2380  131.3850 C   0  0  0  0  0  0  0  0  0  0  0  0
   10.9449   45.2057  137.6736 H   0  0  0  0  0  0  0  0  0  0  0  0
   10.1449   44.0106  130.1198 C   0  0  0  0  0  0  0  0  0  0  0  0
   11.3952   44.5447  129.9042 C   0  0  0  0  0  0  0  0  0  0  0  0
   12.0688   44.3277  128.6932 C   0  0  0  0  0  0  0  0  0  0  0  0
   11.5070   43.5823  127.6935 C   0  0  0  0  0  0  0  0  0  0  0  0
   12.1976   43.3763  126.4874 O   0  0  0  0  0  0  0  0  0  0  0  0
   10.2539   43.0471  127.9100 C   0  0  0  0  0  0  0  0  0  0  0  0
    9.5911   43.2637  129.1083 C   0  0  0  0  0  0  0  0  0  0  0  0
   11.7660   42.8254  125.7660 H   0  0  0  0  0  0  0  0  0  0  0  0
    7.2665   47.9665  128.5245 C   0  0  0  0  0  0  0  0  0  0  0  0
    8.5253   47.4372  128.6840 C   0  0  0  0  0  0  0  0  0  0  0  0
    8.7818   46.3805  129.5523 C   0  0  0  0  0  0  0  0  0  0  0  0
    7.7898   45.8003  130.3040 C   0  0  0  0  0  0  0  0  0  0  0  0
    6.5242   46.3351  130.1403 C   0  0  0  0  0  0  0  0  0  0  0  0
    6.2511   47.3675  129.2978 C   0  0  0  0  0  0  0  0  0  0  0  0
    6.9327   49.0037  127.6965 O   0  0  0  0  0  0  0  0  0  0  0  0
    6.8160   50.3459  127.8512 C   0  0  0  0  0  0  0  0  0  0  0  0
    7.2558   52.2281  129.3677 C   0  0  0  0  0  0  0  0  0  0  0  0
    6.7897   50.7729  129.2866 C   0  0  0  0  0  0  0  0  0  0  0  0
    7.6849   49.9907  130.1091 N   0  0  0  0  0  0  0  0  0  0  0  0
    9.0375   50.4116  130.1188 C   0  0  0  0  0  0  0  0  0  0  0  0
    9.6458   49.6644  131.2855 C   0  0  0  0  0  0  0  0  0  0  0  0
    8.4853   49.1788  132.1121 C   0  0  0  0  0  0  0  0  0  0  0  0
    7.2373   49.7225  131.4257 C   0  0  0  0  0  0  0  0  0  0  0  0
 29 30  1  0  0  0
 30 28  1  0  0  0
 28 27  1  0  0  0
 27 21  1  0  0  0
 21 22  2  0  0  0
 22 23  1  0  0  0
 23 24  2  0  0  0
 24 25  1  0  0  0
 25 26  2  0  0  0
 24  1  1  0  0  0
  1  2  1  0  0  0
  2  3  1  0  0  0
  3  4  2  0  0  0
  4  5  1  0  0  0
  5  6  2  0  0  0
  6  7  1  0  0  0
  6  8  1  0  0  0
  8  9  2  0  0  0
  9 10  1  0  0  0
 10 11  1  0  0  0
 11 13  1  0  0  0
 13 14  2  0  0  0
 14 15  1  0  0  0
 15 16  2  0  0  0
 16 17  1  0  0  0
 16 18  1  0  0  0
 18 19  2  0  0  0
 30 31  1  0  0  0
 31 32  1  0  0  0
 32 33  1  0  0  0
 33 34  1  0  0  0
 34 35  1  0  0  0
 26 21  1  0  0  0
 11  1  1  0  0  0
 19 13  1  0  0  0
 35 31  1  0  0  0
  9  3  1  0  0  0
  7 12  1  0  0  0
 17 20  1  0  0  0
M  END
> <minimizedAffinity>
8.80000

> <CNNscore>
0.3543246090

> <CNNaffinity>
7.2018842697

> <CNN_VS>
2.5518047810

> <CNNaffinity_variance>
0.9728761911

$$$$
[H]Oc1c([H])c([H])c([C@@]2([H])Oc3c([H])c(O[H])c([H])c([H])c3O[C@@]2([H])c2c([H])c([H])c(OC([H])([H])[C@@]([H])(N3C([H])([H])C([H])([H])C([H])([H])C3([H])[H])C([H])([H])[H])c([H])c2[H])c([H])c1[H]


 35 39  0  0  0  0  0  0  0  0999 V2000
    7.6003   45.7460  131.0096 C   0  0  0  0  0  0  0  0  0  0  0  0
    6.6176   46.5366  130.3777 O   0  0  0  0  0  0  0  0  0  0  0  0
    6.6956   47.9046  130.1812 C   0  0  0  0  0  0  0  0  0  0  0  0
    5.6517   48.6386  129.6531 C   0  0  0  0  0  0  0  0  0  0  0  0
    5.7703   50.0123  129.4709 C   0  0  0  0  0  0  0  0  0  0  0  0
    6.9266   50.6845  129.8090 C   0  0  0  0  0  0  0  0  0  0  0  0
    6.9841   52.0522  129.6038 O   0  0  0  0  0  0  0  0  0  0  0  0
    7.9479   49.9259  130.3326 C   0  0  0  0  0  0  0  0  0  0  0  0
    7.8656   48.5754  130.5251 C   0  0  0  0  0  0  0  0  0  0  0  0
    8.8693   47.7919  131.0456 O   0  0  0  0  0  0  0  0  0  0  0  0
    8.5160   46.6338  131.7693 C   0  0  0  0  0  0  0  0  0  0  0  0
    6.7085   52.7420  130.2877 H   0  0  0  0  0  0  0  0  0  0  0  0
    9.6811   45.9601  132.3607 C   0  0  0  0  0  0  0  0  0  0  0  0
   10.9023   45.9664  131.7255 C   0  0  0  0  0  0  0  0  0  0  0  0
   12.0092   45.3181  132.2929 C   0  0  0  0  0  0  0  0  0  0  0  0
   11.9102   44.6627  133.4892 C   0  0  0  0  0  0  0  0  0  0  0  0
   13.0305   44.0191  134.0412 O   0  0  0  0  0  0  0  0  0  0  0  0
   10.6860   44.6568  134.1255 C   0  0  0  0  0  0  0  0  0  0  0  0
    9.5941   45.2985  133.5618 C   0  0  0  0  0  0  0  0  0  0  0  0
   12.9352   43.5431  134.9214 H   0  0  0  0  0  0  0  0  0  0  0  0
    9.4579   43.0751  128.1523 C   0  0  0  0  0  0  0  0  0  0  0  0
    9.4038   44.4327  127.9415 C   0  0  0  0  0  0  0  0  0  0  0  0
    8.8097   45.3021  128.8511 C   0  0  0  0  0  0  0  0  0  0  0  0
    8.2405   44.8553  130.0182 C   0  0  0  0  0  0  0  0  0  0  0  0
    8.2974   43.4887  130.2273 C   0  0  0  0  0  0  0  0  0  0  0  0
    8.8727   42.6209  129.3519 C   0  0  0  0  0  0  0  0  0  0  0  0
   10.0192   42.1553  127.3087 O   0  0  0  0  0  0  0  0  0  0  0  0
   10.4415   40.8736  127.4427 C   0  0  0  0  0  0  0  0  0  0  0  0
    9.7259   39.0999  125.9007 C   0  0  0  0  0  0  0  0  0  0  0  0
   10.7479   40.2148  126.1329 C   0  0  0  0  0  0  0  0  0  0  0  0
   12.0579   39.6040  126.1183 N   0  0  0  0  0  0  0  0  0  0  0  0
   12.1087   38.2470  126.5219 C   0  0  0  0  0  0  0  0  0  0  0  0
   13.4835   37.7867  126.0888 C   0  0  0  0  0  0  0  0  0  0  0  0
   13.9662   38.8113  125.0973 C   0  0  0  0  0  0  0  0  0  0  0  0
   12.8180   39.8017  124.9397 C   0  0  0  0  0  0  0  0  0  0  0  0
 29 30  1  0  0  0
 30 28  1  0  0  0
 28 27  1  0  0  0
 27 21  1  0  0  0
 21 22  2  0  0  0
 22 23  1  0  0  0
 23 24  2  0  0  0
 24 25  1  0  0  0
 25 26  2  0  0  0
 24  1  1  0  0  0
  1  2  1  0  0  0
  2  3  1  0  0  0
  3  4  2  0  0  0
  4  5  1  0  0  0
  5  6  2  0  0  0
  6  7  1  0  0  0
  6  8  1  0  0  0
  8  9  2  0  0  0
  9 10  1  0  0  0
 10 11  1  0  0  0
 11 13  1  0  0  0
 13 14  2  0  0  0
 14 15  1  0  0  0
 15 16  2  0  0  0
 16 17  1  0  0  0
 16 18  1  0  0  0
 18 19  2  0  0  0
 30 31  1  0  0  0
 31 32  1  0  0  0
 32 33  1  0  0  0
 33 34  1  0  0  0
 34 35  1  0  0  0
 26 21  1  0  0  0
 11  1  1  0  0  0
 19 13  1  0  0  0
 35 31  1  0  0  0
  9  3  1  0  0  0
  7 12  1  0  0  0
 17 20  1  0  0  0
M  END
> <minimizedAffinity>
10.31114

> <CNNscore>
0.3515861034

> <CNNaffinity>
7.4378829002

> <CNN_VS>
2.6150562763

> <CNNaffinity_variance>
0.5356687903

$$$$
[H]Oc1c([H])c([H])c([C@@]2([H])Oc3c([H])c(O[H])c([H])c([H])c3O[C@@]2([H])c2c([H])c([H])c(OC([H])([H])[C@@]([H])(N3C([H])([H])C([H])([H])C([H])([H])C3([H])[H])C([H])([H])[H])c([H])c2[H])c([H])c1[H]


 35 39  0  0  0  0  0  0  0  0999 V2000
   11.5475   46.0895  131.2252 C   0  0  0  0  0  0  0  0  0  0  0  0
   11.7512   45.7582  129.8692 O   0  0  0  0  0  0  0  0  0  0  0  0
   11.2093   44.6602  129.2235 C   0  0  0  0  0  0  0  0  0  0  0  0
   11.5343   44.3301  127.9224 C   0  0  0  0  0  0  0  0  0  0  0  0
   10.9670   43.2182  127.3090 C   0  0  0  0  0  0  0  0  0  0  0  0
   10.0663   42.4123  127.9743 C   0  0  0  0  0  0  0  0  0  0  0  0
    9.5358   41.3199  127.3102 O   0  0  0  0  0  0  0  0  0  0  0  0
    9.7632   42.7671  129.2685 C   0  0  0  0  0  0  0  0  0  0  0  0
   10.3015   43.8521  129.9017 C   0  0  0  0  0  0  0  0  0  0  0  0
   10.0173   44.2309  131.1931 O   0  0  0  0  0  0  0  0  0  0  0  0
   11.0123   44.9008  131.9354 C   0  0  0  0  0  0  0  0  0  0  0  0
    9.9463   40.3974  127.3141 H   0  0  0  0  0  0  0  0  0  0  0  0
   10.6112   45.1416  133.3290 C   0  0  0  0  0  0  0  0  0  0  0  0
    9.4415   45.8037  133.6263 C   0  0  0  0  0  0  0  0  0  0  0  0
    9.0664   46.0342  134.9581 C   0  0  0  0  0  0  0  0  0  0  0  0
    9.8474   45.6103  135.9978 C   0  0  0  0  0  0  0  0  0  0  0  0
    9.4546   45.8508  137.3251 O   0  0  0  0  0  0  0  0  0  0  0  0
   11.0196   44.9467  135.6993 C   0  0  0  0  0  0  0  0  0  0  0  0
   11.3872   44.7207  134.3818 C   0  0  0  0  0  0  0  0  0  0  0  0
   10.0438   45.5308  138.0739 H   0  0  0  0  0  0  0  0  0  0  0  0
    9.1357   49.6791  131.4407 C   0  0  0  0  0  0  0  0  0  0  0  0
    9.9618   49.3019  132.4729 C   0  0  0  0  0  0  0  0  0  0  0  0
   10.7418   48.1509  132.4168 C   0  0  0  0  0  0  0  0  0  0  0  0
   10.7339   47.3202  131.3235 C   0  0  0  0  0  0  0  0  0  0  0  0
    9.9019   47.7033  130.2864 C   0  0  0  0  0  0  0  0  0  0  0  0
    9.1310   48.8236  130.3201 C   0  0  0  0  0  0  0  0  0  0  0  0
    8.3372   50.7903  131.4189 O   0  0  0  0  0  0  0  0  0  0  0  0
    7.2514   51.1686  130.7000 C   0  0  0  0  0  0  0  0  0  0  0  0
    6.9175   52.0012  128.4127 C   0  0  0  0  0  0  0  0  0  0  0  0
    7.3446   50.7954  129.2525 C   0  0  0  0  0  0  0  0  0  0  0  0
    6.4640   49.7017  128.9092 N   0  0  0  0  0  0  0  0  0  0  0  0
    7.0958   48.5370  128.4079 C   0  0  0  0  0  0  0  0  0  0  0  0
    6.0147   47.4798  128.4653 C   0  0  0  0  0  0  0  0  0  0  0  0
    4.9547   48.0258  129.3841 C   0  0  0  0  0  0  0  0  0  0  0  0
    5.4934   49.3618  129.8830 C   0  0  0  0  0  0  0  0  0  0  0  0
 29 30  1  0  0  0
 30 28  1  0  0  0
 28 27  1  0  0  0
 27 21  1  0  0  0
 21 22  2  0  0  0
 22 23  1  0  0  0
 23 24  2  0  0  0
 24 25  1  0  0  0
 25 26  2  0  0  0
 24  1  1  0  0  0
  1  2  1  0  0  0
  2  3  1  0  0  0
  3  4  2  0  0  0
  4  5  1  0  0  0
  5  6  2  0  0  0
  6  7  1  0  0  0
  6  8  1  0  0  0
  8  9  2  0  0  0
  9 10  1  0  0  0
 10 11  1  0  0  0
 11 13  1  0  0  0
 13 14  2  0  0  0
 14 15  1  0  0  0
 15 16  2  0  0  0
 16 17  1  0  0  0
 16 18  1  0  0  0
 18 19  2  0  0  0
 30 31  1  0  0  0
 31 32  1  0  0  0
 32 33  1  0  0  0
 33 34  1  0  0  0
 34 35  1  0  0  0
 26 21  1  0  0  0
 11  1  1  0  0  0
 19 13  1  0  0  0
 35 31  1  0  0  0
  9  3  1  0  0  0
  7 12  1  0  0  0
 17 20  1  0  0  0
M  END
> <minimizedAffinity>
4.75013

> <CNNscore>
0.3377108574

> <CNNaffinity>
7.3746194839

> <CNN_VS>
2.4904890060

> <CNNaffinity_variance>
0.6919251680

$$$$
[H]Oc1c([H])c([H])c([C@@]2([H])Oc3c([H])c(O[H])c([H])c([H])c3O[C@@]2([H])c2c([H])c([H])c(OC([H])([H])[C@@]([H])(N3C([H])([H])C([H])([H])C([H])([H])C3([H])[H])C([H])([H])[H])c([H])c2[H])c([H])c1[H]


 35 39  0  0  0  0  0  0  0  0999 V2000
   10.5909   43.7972  131.6469 C   0  0  0  0  0  0  0  0  0  0  0  0
   11.2797   43.8065  130.4159 O   0  0  0  0  0  0  0  0  0  0  0  0
   10.6894   43.7085  129.1677 C   0  0  0  0  0  0  0  0  0  0  0  0
   11.4270   43.6137  128.0039 C   0  0  0  0  0  0  0  0  0  0  0  0
   10.7953   43.5174  126.7686 C   0  0  0  0  0  0  0  0  0  0  0  0
    9.4197   43.5133  126.6637 C   0  0  0  0  0  0  0  0  0  0  0  0
    8.8496   43.4152  125.4063 O   0  0  0  0  0  0  0  0  0  0  0  0
    8.7132   43.6088  127.8404 C   0  0  0  0  0  0  0  0  0  0  0  0
    9.3010   43.7048  129.0705 C   0  0  0  0  0  0  0  0  0  0  0  0
    8.6211   43.8018  130.2623 O   0  0  0  0  0  0  0  0  0  0  0  0
    9.2190   43.2747  131.4262 C   0  0  0  0  0  0  0  0  0  0  0  0
    8.6131   42.5433  124.9554 H   0  0  0  0  0  0  0  0  0  0  0  0
    8.3340   43.3463  132.5977 C   0  0  0  0  0  0  0  0  0  0  0  0
    7.9207   44.5589  133.1016 C   0  0  0  0  0  0  0  0  0  0  0  0
    7.0796   44.6207  134.2224 C   0  0  0  0  0  0  0  0  0  0  0  0
    6.6460   43.4837  134.8466 C   0  0  0  0  0  0  0  0  0  0  0  0
    5.8038   43.5664  135.9682 O   0  0  0  0  0  0  0  0  0  0  0  0
    7.0604   42.2686  134.3412 C   0  0  0  0  0  0  0  0  0  0  0  0
    7.8918   42.2113  133.2333 C   0  0  0  0  0  0  0  0  0  0  0  0
    5.4973   42.7180  136.4117 H   0  0  0  0  0  0  0  0  0  0  0  0
   10.8425   47.7343  133.4313 C   0  0  0  0  0  0  0  0  0  0  0  0
   10.9107   46.5914  134.1925 C   0  0  0  0  0  0  0  0  0  0  0  0
   10.8308   45.3203  133.6321 C   0  0  0  0  0  0  0  0  0  0  0  0
   10.6794   45.1301  132.2806 C   0  0  0  0  0  0  0  0  0  0  0  0
   10.6118   46.2825  131.5176 C   0  0  0  0  0  0  0  0  0  0  0  0
   10.6874   47.5343  132.0443 C   0  0  0  0  0  0  0  0  0  0  0  0
   10.9096   49.0168  133.9041 O   0  0  0  0  0  0  0  0  0  0  0  0
   10.5328   50.2287  133.4262 C   0  0  0  0  0  0  0  0  0  0  0  0
    8.3760   49.0759  133.6618 C   0  0  0  0  0  0  0  0  0  0  0  0
    9.0826   50.2908  133.0565 C   0  0  0  0  0  0  0  0  0  0  0  0
    8.8772   50.2365  131.6267 N   0  0  0  0  0  0  0  0  0  0  0  0
    9.9316   49.6621  130.8749 C   0  0  0  0  0  0  0  0  0  0  0  0
    9.3217   49.4233  129.5108 C   0  0  0  0  0  0  0  0  0  0  0  0
    7.8315   49.5057  129.7072 C   0  0  0  0  0  0  0  0  0  0  0  0
    7.6266   49.7253  131.2018 C   0  0  0  0  0  0  0  0  0  0  0  0
 29 30  1  0  0  0
 30 28  1  0  0  0
 28 27  1  0  0  0
 27 21  1  0  0  0
 21 22  2  0  0  0
 22 23  1  0  0  0
 23 24  2  0  0  0
 24 25  1  0  0  0
 25 26  2  0  0  0
 24  1  1  0  0  0
  1  2  1  0  0  0
  2  3  1  0  0  0
  3  4  2  0  0  0
  4  5  1  0  0  0
  5  6  2  0  0  0
  6  7  1  0  0  0
  6  8  1  0  0  0
  8  9  2  0  0  0
  9 10  1  0  0  0
 10 11  1  0  0  0
 11 13  1  0  0  0
 13 14  2  0  0  0
 14 15  1  0  0  0
 15 16  2  0  0  0
 16 17  1  0  0  0
 16 18  1  0  0  0
 18 19  2  0  0  0
 30 31  1  0  0  0
 31 32  1  0  0  0
 32 33  1  0  0  0
 33 34  1  0  0  0
 34 35  1  0  0  0
 26 21  1  0  0  0
 11  1  1  0  0  0
 19 13  1  0  0  0
 35 31  1  0  0  0
  9  3  1  0  0  0
  7 12  1  0  0  0
 17 20  1  0  0  0
M  END
> <minimizedAffinity>
20.91890

> <CNNscore>
0.3056778014

> <CNNaffinity>
6.9429144859

> <CNN_VS>
2.1222949028

> <CNNaffinity_variance>
0.6381291151

$$$$
[H]Oc1c([H])c([H])c([C@@]2([H])Oc3c([H])c(O[H])c([H])c([H])c3O[C@@]2([H])c2c([H])c([H])c(OC([H])([H])[C@@]([H])(N3C([H])([H])C([H])([H])C([H])([H])C3([H])[H])C([H])([H])[H])c([H])c2[H])c([H])c1[H]


 35 39  0  0  0  0  0  0  0  0999 V2000
    9.3387   44.3224  132.3413 C   0  0  0  0  0  0  0  0  0  0  0  0
    9.6328   44.1381  133.7086 O   0  0  0  0  0  0  0  0  0  0  0  0
   10.8921   43.8995  134.2313 C   0  0  0  0  0  0  0  0  0  0  0  0
   11.0994   43.6190  135.5676 C   0  0  0  0  0  0  0  0  0  0  0  0
   12.3815   43.3856  136.0536 C   0  0  0  0  0  0  0  0  0  0  0  0
   13.4827   43.4258  135.2236 C   0  0  0  0  0  0  0  0  0  0  0  0
   14.7329   43.1851  135.7664 O   0  0  0  0  0  0  0  0  0  0  0  0
   13.2436   43.7074  133.8983 C   0  0  0  0  0  0  0  0  0  0  0  0
   11.9979   43.9417  133.3871 C   0  0  0  0  0  0  0  0  0  0  0  0
   11.7289   44.2257  132.0684 O   0  0  0  0  0  0  0  0  0  0  0  0
   10.4840   43.8338  131.5331 C   0  0  0  0  0  0  0  0  0  0  0  0
   15.1580   42.2716  135.8327 H   0  0  0  0  0  0  0  0  0  0  0  0
   10.3809   44.0986  130.0908 C   0  0  0  0  0  0  0  0  0  0  0  0
    9.6273   43.2877  129.2726 C   0  0  0  0  0  0  0  0  0  0  0  0
    9.5364   43.5431  127.8965 C   0  0  0  0  0  0  0  0  0  0  0  0
   10.1904   44.6008  127.3272 C   0  0  0  0  0  0  0  0  0  0  0  0
   10.0870   44.8402  125.9467 O   0  0  0  0  0  0  0  0  0  0  0  0
   10.9455   45.4134  128.1477 C   0  0  0  0  0  0  0  0  0  0  0  0
   11.0332   45.1579  129.5075 C   0  0  0  0  0  0  0  0  0  0  0  0
   10.5763   45.6231  125.5492 H   0  0  0  0  0  0  0  0  0  0  0  0
    8.2125   48.4486  131.6675 C   0  0  0  0  0  0  0  0  0  0  0  0
    7.3763   47.4090  131.3353 C   0  0  0  0  0  0  0  0  0  0  0  0
    7.7258   46.0788  131.5461 C   0  0  0  0  0  0  0  0  0  0  0  0
    8.9304   45.7229  132.1010 C   0  0  0  0  0  0  0  0  0  0  0  0
    9.7690   46.7718  132.4347 C   0  0  0  0  0  0  0  0  0  0  0  0
    9.4479   48.0788  132.2373 C   0  0  0  0  0  0  0  0  0  0  0  0
    7.9457   49.7792  131.4903 O   0  0  0  0  0  0  0  0  0  0  0  0
    8.0397   50.6381  130.4452 C   0  0  0  0  0  0  0  0  0  0  0  0
    5.6012   50.8776  130.6244 C   0  0  0  0  0  0  0  0  0  0  0  0
    6.7738   50.7399  129.6511 C   0  0  0  0  0  0  0  0  0  0  0  0
    6.5301   49.5603  128.8520 N   0  0  0  0  0  0  0  0  0  0  0  0
    7.6700   48.7753  128.5498 C   0  0  0  0  0  0  0  0  0  0  0  0
    7.0936   47.4770  128.0286 C   0  0  0  0  0  0  0  0  0  0  0  0
    5.6509   47.4665  128.4580 C   0  0  0  0  0  0  0  0  0  0  0  0
    5.4575   48.7383  129.2761 C   0  0  0  0  0  0  0  0  0  0  0  0
 29 30  1  0  0  0
 30 28  1  0  0  0
 28 27  1  0  0  0
 27 21  1  0  0  0
 21 22  2  0  0  0
 22 23  1  0  0  0
 23 24  2  0  0  0
 24 25  1  0  0  0
 25 26  2  0  0  0
 24  1  1  0  0  0
  1  2  1  0  0  0
  2  3  1  0  0  0
  3  4  2  0  0  0
  4  5  1  0  0  0
  5  6  2  0  0  0
  6  7  1  0  0  0
  6  8  1  0  0  0
  8  9  2  0  0  0
  9 10  1  0  0  0
 10 11  1  0  0  0
 11 13  1  0  0  0
 13 14  2  0  0  0
 14 15  1  0  0  0
 15 16  2  0  0  0
 16 17  1  0  0  0
 16 18  1  0  0  0
 18 19  2  0  0  0
 30 31  1  0  0  0
 31 32  1  0  0  0
 32 33  1  0  0  0
 33 34  1  0  0  0
 34 35  1  0  0  0
 26 21  1  0  0  0
 11  1  1  0  0  0
 19 13  1  0  0  0
 35 31  1  0  0  0
  9  3  1  0  0  0
  7 12  1  0  0  0
 17 20  1  0  0  0
M  END
> <minimizedAffinity>
8.02064

> <CNNscore>
0.2514688373

> <CNNaffinity>
7.4153380394

> <CNN_VS>
1.8647264242

> <CNNaffinity_variance>
0.6292779446

$$$$
[H]Oc1c([H])c([H])c([C@@]2([H])Oc3c([H])c(O[H])c([H])c([H])c3O[C@@]2([H])c2c([H])c([H])c(OC([H])([H])[C@@]([H])(N3C([H])([H])C([H])([H])C([H])([H])C3([H])[H])C([H])([H])[H])c([H])c2[H])c([H])c1[H]


 35 39  0  0  0  0  0  0  0  0999 V2000
   11.9893   44.8781  132.3920 C   0  0  0  0  0  0  0  0  0  0  0  0
   13.1925   45.2855  131.7784 O   0  0  0  0  0  0  0  0  0  0  0  0
   13.6802   44.8048  130.5755 C   0  0  0  0  0  0  0  0  0  0  0  0
   14.9187   45.1637  130.0809 C   0  0  0  0  0  0  0  0  0  0  0  0
   15.3722   44.6586  128.8670 C   0  0  0  0  0  0  0  0  0  0  0  0
   14.6060   43.7876  128.1203 C   0  0  0  0  0  0  0  0  0  0  0  0
   15.1120   43.3192  126.9201 O   0  0  0  0  0  0  0  0  0  0  0  0
   13.3778   43.4491  128.6396 C   0  0  0  0  0  0  0  0  0  0  0  0
   12.9011   43.9262  129.8282 C   0  0  0  0  0  0  0  0  0  0  0  0
   11.6786   43.6060  130.3715 O   0  0  0  0  0  0  0  0  0  0  0  0
   11.5429   43.6035  131.7756 C   0  0  0  0  0  0  0  0  0  0  0  0
   15.6666   42.4809  126.8250 H   0  0  0  0  0  0  0  0  0  0  0  0
   10.2207   43.1341  132.2143 C   0  0  0  0  0  0  0  0  0  0  0  0
    9.1549   43.1008  131.3438 C   0  0  0  0  0  0  0  0  0  0  0  0
    7.8947   42.6559  131.7695 C   0  0  0  0  0  0  0  0  0  0  0  0
    7.6865   42.2432  133.0567 C   0  0  0  0  0  0  0  0  0  0  0  0
    6.4167   41.8010  133.4642 O   0  0  0  0  0  0  0  0  0  0  0  0
    8.7551   42.2766  133.9288 C   0  0  0  0  0  0  0  0  0  0  0  0
    9.9993   42.7170  133.5045 C   0  0  0  0  0  0  0  0  0  0  0  0
    6.2860   41.5023  134.4150 H   0  0  0  0  0  0  0  0  0  0  0  0
    9.1469   48.1404  132.2296 C   0  0  0  0  0  0  0  0  0  0  0  0
    9.2903   47.3638  133.3550 C   0  0  0  0  0  0  0  0  0  0  0  0
   10.1995   46.3124  133.4205 C   0  0  0  0  0  0  0  0  0  0  0  0
   11.0113   45.9865  132.3620 C   0  0  0  0  0  0  0  0  0  0  0  0
   10.8647   46.7707  131.2314 C   0  0  0  0  0  0  0  0  0  0  0  0
    9.9826   47.8026  131.1455 C   0  0  0  0  0  0  0  0  0  0  0  0
    8.2770   49.1869  132.0841 O   0  0  0  0  0  0  0  0  0  0  0  0
    8.2247   50.2765  131.2785 C   0  0  0  0  0  0  0  0  0  0  0  0
    6.9224   51.0921  129.3615 C   0  0  0  0  0  0  0  0  0  0  0  0
    7.8046   49.9533  129.8777 C   0  0  0  0  0  0  0  0  0  0  0  0
    7.0225   48.7398  129.8047 N   0  0  0  0  0  0  0  0  0  0  0  0
    5.6421   48.9125  129.5370 C   0  0  0  0  0  0  0  0  0  0  0  0
    5.1609   47.5229  129.1805 C   0  0  0  0  0  0  0  0  0  0  0  0
    6.4002   46.7254  128.8734 C   0  0  0  0  0  0  0  0  0  0  0  0
    7.5604   47.7063  128.9994 C   0  0  0  0  0  0  0  0  0  0  0  0
 29 30  1  0  0  0
 30 28  1  0  0  0
 28 27  1  0  0  0
 27 21  1  0  0  0
 21 22  2  0  0  0
 22 23  1  0  0  0
 23 24  2  0  0  0
 24 25  1  0  0  0
 25 26  2  0  0  0
 24  1  1  0  0  0
  1  2  1  0  0  0
  2  3  1  0  0  0
  3  4  2  0  0  0
  4  5  1  0  0  0
  5  6  2  0  0  0
  6  7  1  0  0  0
  6  8  1  0  0  0
  8  9  2  0  0  0
  9 10  1  0  0  0
 10 11  1  0  0  0
 11 13  1  0  0  0
 13 14  2  0  0  0
 14 15  1  0  0  0
 15 16  2  0  0  0
 16 17  1  0  0  0
 16 18  1  0  0  0
 18 19  2  0  0  0
 30 31  1  0  0  0
 31 32  1  0  0  0
 32 33  1  0  0  0
 33 34  1  0  0  0
 34 35  1  0  0  0
 26 21  1  0  0  0
 11  1  1  0  0  0
 19 13  1  0  0  0
 35 31  1  0  0  0
  9  3  1  0  0  0
  7 12  1  0  0  0
 17 20  1  0  0  0
M  END
> <minimizedAffinity>
11.60941

> <CNNscore>
0.2187926471

> <CNNaffinity>
7.1845626831

> <CNN_VS>
1.5719294548

> <CNNaffinity_variance>
0.5846873522

$$$$
[H]Oc1c([H])c([H])c([C@@]2([H])Oc3c([H])c(O[H])c([H])c([H])c3O[C@@]2([H])c2c([H])c([H])c(OC([H])([H])[C@@]([H])(N3C([H])([H])C([H])([H])C([H])([H])C3([H])[H])C([H])([H])[H])c([H])c2[H])c([H])c1[H]


 35 39  0  0  0  0  0  0  0  0999 V2000
    8.3366   45.5344  129.9035 C   0  0  0  0  0  0  0  0  0  0  0  0
    8.3036   44.5929  128.8535 O   0  0  0  0  0  0  0  0  0  0  0  0
    8.9206   44.7437  127.6236 C   0  0  0  0  0  0  0  0  0  0  0  0
    8.7604   43.8338  126.5971 C   0  0  0  0  0  0  0  0  0  0  0  0
    9.3987   44.0216  125.3757 C   0  0  0  0  0  0  0  0  0  0  0  0
   10.2082   45.1154  125.1489 C   0  0  0  0  0  0  0  0  0  0  0  0
   10.8163   45.2469  123.9125 O   0  0  0  0  0  0  0  0  0  0  0  0
   10.3475   46.0034  126.1904 C   0  0  0  0  0  0  0  0  0  0  0  0
    9.7356   45.8502  127.4028 C   0  0  0  0  0  0  0  0  0  0  0  0
    9.8566   46.7203  128.4612 O   0  0  0  0  0  0  0  0  0  0  0  0
    8.7774   46.8441  129.3611 C   0  0  0  0  0  0  0  0  0  0  0  0
   10.4074   45.7305  123.1261 H   0  0  0  0  0  0  0  0  0  0  0  0
    9.0014   47.8882  130.3715 C   0  0  0  0  0  0  0  0  0  0  0  0
    7.9479   48.4515  131.0553 C   0  0  0  0  0  0  0  0  0  0  0  0
    8.1678   49.4503  132.0151 C   0  0  0  0  0  0  0  0  0  0  0  0
    9.4299   49.8937  132.3002 C   0  0  0  0  0  0  0  0  0  0  0  0
    9.6297   50.8952  133.2650 O   0  0  0  0  0  0  0  0  0  0  0  0
   10.4855   49.3287  131.6146 C   0  0  0  0  0  0  0  0  0  0  0  0
   10.2644   48.3417  130.6666 C   0  0  0  0  0  0  0  0  0  0  0  0
   10.5657   51.2064  133.4586 H   0  0  0  0  0  0  0  0  0  0  0  0
   10.7344   44.0016  133.1668 C   0  0  0  0  0  0  0  0  0  0  0  0
    9.3692   43.8414  133.1373 C   0  0  0  0  0  0  0  0  0  0  0  0
    8.5869   44.3292  132.0952 C   0  0  0  0  0  0  0  0  0  0  0  0
    9.1329   45.0014  131.0295 C   0  0  0  0  0  0  0  0  0  0  0  0
   10.5071   45.1602  131.0622 C   0  0  0  0  0  0  0  0  0  0  0  0
   11.2908   44.6920  132.0706 C   0  0  0  0  0  0  0  0  0  0  0  0
   11.5721   43.5563  134.1531 O   0  0  0  0  0  0  0  0  0  0  0  0
   11.5338   43.5606  135.5086 C   0  0  0  0  0  0  0  0  0  0  0  0
   10.2529   44.6582  137.2949 C   0  0  0  0  0  0  0  0  0  0  0  0
   11.1570   44.8917  136.0827 C   0  0  0  0  0  0  0  0  0  0  0  0
   10.4144   45.7039  135.1455 N   0  0  0  0  0  0  0  0  0  0  0  0
    9.0767   45.9959  135.5093 C   0  0  0  0  0  0  0  0  0  0  0  0
    8.6723   47.1039  134.5614 C   0  0  0  0  0  0  0  0  0  0  0  0
    9.9559   47.6457  133.9916 C   0  0  0  0  0  0  0  0  0  0  0  0
   11.0711   46.8710  134.6845 C   0  0  0  0  0  0  0  0  0  0  0  0
 29 30  1  0  0  0
 30 28  1  0  0  0
 28 27  1  0  0  0
 27 21  1  0  0  0
 21 22  2  0  0  0
 22 23  1  0  0  0
 23 24  2  0  0  0
 24 25  1  0  0  0
 25 26  2  0  0  0
 24  1  1  0  0  0
  1  2  1  0  0  0
  2  3  1  0  0  0
  3  4  2  0  0  0
  4  5  1  0  0  0
  5  6  2  0  0  0
  6  7  1  0  0  0
  6  8  1  0  0  0
  8  9  2  0  0  0
  9 10  1  0  0  0
 10 11  1  0  0  0
 11 13  1  0  0  0
 13 14  2  0  0  0
 14 15  1  0  0  0
 15 16  2  0  0  0
 16 17  1  0  0  0
 16 18  1  0  0  0
 18 19  2  0  0  0
 30 31  1  0  0  0
 31 32  1  0  0  0
 32 33  1  0  0  0
 33 34  1  0  0  0
 34 35  1  0  0  0
 26 21  1  0  0  0
 11  1  1  0  0  0
 19 13  1  0  0  0
 35 31  1  0  0  0
  9  3  1  0  0  0
  7 12  1  0  0  0
 17 20  1  0  0  0
M  END
> <minimizedAffinity>
20.34560

> <CNNscore>
0.1930401623

> <CNNaffinity>
7.1243925095

> <CNN_VS>
1.3752938509

> <CNNaffinity_variance>
0.6395550966

$$$$
[H]Oc1c([H])c([H])c([C@@]2([H])Sc3c([H])c(O[H])c([H])c([H])c3O[C@]2([H])c2c([H])c([H])c(OC([H])([H])C([H])([H])N3C([H])([H])C([H])([H])C([H])([H])C3([H])[H])c([H])c2[H])c([H])c1[H]


 34 38  0  0  0  0  0  0  0  0999 V2000
   10.4537   45.1561  131.7980 C   0  0  0  0  0  0  0  0  0  0  0  0
   12.1387   45.0722  132.4808 S   0  0  0  0  0  0  0  0  0  0  0  0
   12.2609   46.4291  133.6383 C   0  0  0  0  0  0  0  0  0  0  0  0
   13.3304   46.6040  134.4581 C   0  0  0  0  0  0  0  0  0  0  0  0
   13.3826   47.6728  135.3432 C   0  0  0  0  0  0  0  0  0  0  0  0
   14.4809   47.8478  136.1820 O   0  0  0  0  0  0  0  0  0  0  0  0
   12.3520   48.6005  135.4271 C   0  0  0  0  0  0  0  0  0  0  0  0
   11.2688   48.4171  134.5919 C   0  0  0  0  0  0  0  0  0  0  0  0
   11.2338   47.3454  133.7154 C   0  0  0  0  0  0  0  0  0  0  0  0
   10.1185   47.2195  132.9050 O   0  0  0  0  0  0  0  0  0  0  0  0
   10.1539   46.6328  131.6287 C   0  0  0  0  0  0  0  0  0  0  0  0
   15.2597   47.1906  136.1542 H   0  0  0  0  0  0  0  0  0  0  0  0
    9.8576   42.2365  126.9574 O   0  0  0  0  0  0  0  0  0  0  0  0
    9.9951   42.9484  128.1619 C   0  0  0  0  0  0  0  0  0  0  0  0
    9.3859   42.5189  129.3200 C   0  0  0  0  0  0  0  0  0  0  0  0
    9.5304   43.2320  130.5037 C   0  0  0  0  0  0  0  0  0  0  0  0
   10.2779   44.3837  130.5730 C   0  0  0  0  0  0  0  0  0  0  0  0
   10.8803   44.8000  129.4073 C   0  0  0  0  0  0  0  0  0  0  0  0
   10.7467   44.1010  128.2187 C   0  0  0  0  0  0  0  0  0  0  0  0
    9.3247   41.4030  126.8808 H   0  0  0  0  0  0  0  0  0  0  0  0
    8.8604   46.8667  130.9536 C   0  0  0  0  0  0  0  0  0  0  0  0
    7.7561   46.0650  131.1499 C   0  0  0  0  0  0  0  0  0  0  0  0
    6.5677   46.3200  130.4983 C   0  0  0  0  0  0  0  0  0  0  0  0
    6.4223   47.3806  129.6240 C   0  0  0  0  0  0  0  0  0  0  0  0
    7.5239   48.1844  129.4251 C   0  0  0  0  0  0  0  0  0  0  0  0
    8.7227   47.9273  130.0823 C   0  0  0  0  0  0  0  0  0  0  0  0
    5.2113   47.6232  128.9733 O   0  0  0  0  0  0  0  0  0  0  0  0
    4.1062   46.7321  129.1335 C   0  0  0  0  0  0  0  0  0  0  0  0
    3.5256   46.8146  130.5066 C   0  0  0  0  0  0  0  0  0  0  0  0
    2.1497   46.4474  130.5845 N   0  0  0  0  0  0  0  0  0  0  0  0
    1.3203   46.9847  129.5589 C   0  0  0  0  0  0  0  0  0  0  0  0
    0.7395   45.7964  128.8222 C   0  0  0  0  0  0  0  0  0  0  0  0
    0.6411   44.7586  129.9235 C   0  0  0  0  0  0  0  0  0  0  0  0
    1.8902   45.0524  130.7411 C   0  0  0  0  0  0  0  0  0  0  0  0
 13 14  1  0  0  0
 14 15  2  0  0  0
 15 16  1  0  0  0
 16 17  2  0  0  0
 17 18  1  0  0  0
 18 19  2  0  0  0
 17  1  1  0  0  0
  1  2  1  0  0  0
  2  3  1  0  0  0
  3  4  2  0  0  0
  4  5  1  0  0  0
  5  6  1  0  0  0
  5  7  2  0  0  0
  7  8  1  0  0  0
  8  9  2  0  0  0
  9 10  1  0  0  0
 10 11  1  0  0  0
 11 21  1  0  0  0
 21 22  2  0  0  0
 22 23  1  0  0  0
 23 24  2  0  0  0
 24 27  1  0  0  0
 27 28  1  0  0  0
 28 29  1  0  0  0
 29 30  1  0  0  0
 30 31  1  0  0  0
 31 32  1  0  0  0
 32 33  1  0  0  0
 33 34  1  0  0  0
 24 25  1  0  0  0
 25 26  2  0  0  0
 19 14  1  0  0  0
 11  1  1  0  0  0
 26 21  1  0  0  0
  9  3  1  0  0  0
 34 30  1  0  0  0
 13 20  1  0  0  0
  6 12  1  0  0  0
M  END
> <minimizedAffinity>
17.30589

> <CNNscore>
0.4120790362

> <CNNaffinity>
7.3739266396

> <CNN_VS>
3.0386404991

> <CNNaffinity_variance>
1.3757116795

$$$$
[H]Oc1c([H])c([H])c([C@@]2([H])Sc3c([H])c(O[H])c([H])c([H])c3O[C@]2([H])c2c([H])c([H])c(OC([H])([H])C([H])([H])N3C([H])([H])C([H])([H])C([H])([H])C3([H])[H])c([H])c2[H])c([H])c1[H]


 34 38  0  0  0  0  0  0  0  0999 V2000
    8.9280   45.9869  129.4760 C   0  0  0  0  0  0  0  0  0  0  0  0
    9.7088   45.6203  127.8735 S   0  0  0  0  0  0  0  0  0  0  0  0
   11.3030   44.9107  128.2620 C   0  0  0  0  0  0  0  0  0  0  0  0
   12.1200   44.3734  127.3183 C   0  0  0  0  0  0  0  0  0  0  0  0
   13.3505   43.8317  127.6658 C   0  0  0  0  0  0  0  0  0  0  0  0
   14.1845   43.2817  126.6950 O   0  0  0  0  0  0  0  0  0  0  0  0
   13.7945   43.8164  128.9820 C   0  0  0  0  0  0  0  0  0  0  0  0
   12.9602   44.3635  129.9354 C   0  0  0  0  0  0  0  0  0  0  0  0
   11.7363   44.8994  129.5707 C   0  0  0  0  0  0  0  0  0  0  0  0
   10.9476   45.4327  130.5757 O   0  0  0  0  0  0  0  0  0  0  0  0
   10.0450   46.4897  130.3699 C   0  0  0  0  0  0  0  0  0  0  0  0
   13.8984   43.2713  125.7165 H   0  0  0  0  0  0  0  0  0  0  0  0
    4.6251   49.6797  129.0759 O   0  0  0  0  0  0  0  0  0  0  0  0
    5.6790   48.7548  129.1787 C   0  0  0  0  0  0  0  0  0  0  0  0
    5.4402   47.4255  129.4483 C   0  0  0  0  0  0  0  0  0  0  0  0
    6.4911   46.5221  129.5470 C   0  0  0  0  0  0  0  0  0  0  0  0
    7.8003   46.9077  129.3823 C   0  0  0  0  0  0  0  0  0  0  0  0
    8.0228   48.2394  129.1134 C   0  0  0  0  0  0  0  0  0  0  0  0
    6.9866   49.1533  129.0117 C   0  0  0  0  0  0  0  0  0  0  0  0
    3.6723   49.4272  129.1898 H   0  0  0  0  0  0  0  0  0  0  0  0
    9.5449   46.9595  131.6787 C   0  0  0  0  0  0  0  0  0  0  0  0
    9.8769   48.1868  132.2118 C   0  0  0  0  0  0  0  0  0  0  0  0
    9.3871   48.5852  133.4379 C   0  0  0  0  0  0  0  0  0  0  0  0
    8.5471   47.7845  134.1886 C   0  0  0  0  0  0  0  0  0  0  0  0
    8.2129   46.5568  133.6591 C   0  0  0  0  0  0  0  0  0  0  0  0
    8.7068   46.1549  132.4224 C   0  0  0  0  0  0  0  0  0  0  0  0
    8.0611   48.2047  135.4280 O   0  0  0  0  0  0  0  0  0  0  0  0
    8.5703   47.6436  136.6391 C   0  0  0  0  0  0  0  0  0  0  0  0
    9.9577   47.1205  136.4641 C   0  0  0  0  0  0  0  0  0  0  0  0
   10.0859   46.1262  135.4499 N   0  0  0  0  0  0  0  0  0  0  0  0
   11.1940   46.2962  134.5713 C   0  0  0  0  0  0  0  0  0  0  0  0
   12.0513   45.0588  134.7314 C   0  0  0  0  0  0  0  0  0  0  0  0
   11.0171   43.9961  135.0486 C   0  0  0  0  0  0  0  0  0  0  0  0
   10.0233   44.7728  135.8997 C   0  0  0  0  0  0  0  0  0  0  0  0
 13 14  1  0  0  0
 14 15  2  0  0  0
 15 16  1  0  0  0
 16 17  2  0  0  0
 17 18  1  0  0  0
 18 19  2  0  0  0
 17  1  1  0  0  0
  1  2  1  0  0  0
  2  3  1  0  0  0
  3  4  2  0  0  0
  4  5  1  0  0  0
  5  6  1  0  0  0
  5  7  2  0  0  0
  7  8  1  0  0  0
  8  9  2  0  0  0
  9 10  1  0  0  0
 10 11  1  0  0  0
 11 21  1  0  0  0
 21 22  2  0  0  0
 22 23  1  0  0  0
 23 24  2  0  0  0
 24 27  1  0  0  0
 27 28  1  0  0  0
 28 29  1  0  0  0
 29 30  1  0  0  0
 30 31  1  0  0  0
 31 32  1  0  0  0
 32 33  1  0  0  0
 33 34  1  0  0  0
 24 25  1  0  0  0
 25 26  2  0  0  0
 19 14  1  0  0  0
 11  1  1  0  0  0
 26 21  1  0  0  0
  9  3  1  0  0  0
 34 30  1  0  0  0
 13 20  1  0  0  0
  6 12  1  0  0  0
M  END
> <minimizedAffinity>
12.13488

> <CNNscore>
0.4097721577

> <CNNaffinity>
7.5635743141

> <CNN_VS>
3.0993421078

> <CNNaffinity_variance>
1.3925453424

$$$$
[H]Oc1c([H])c([H])c([C@@]2([H])Sc3c([H])c(O[H])c([H])c([H])c3O[C@]2([H])c2c([H])c([H])c(OC([H])([H])C([H])([H])N3C([H])([H])C([H])([H])C([H])([H])C3([H])[H])c([H])c2[H])c([H])c1[H]


 34 38  0  0  0  0  0  0  0  0999 V2000
    9.2322   44.5258  130.3204 C   0  0  0  0  0  0  0  0  0  0  0  0
    9.8138   42.8227  130.5918 S   0  0  0  0  0  0  0  0  0  0  0  0
    9.6665   42.5344  132.3500 C   0  0  0  0  0  0  0  0  0  0  0  0
    9.8707   41.3163  132.9164 C   0  0  0  0  0  0  0  0  0  0  0  0
    9.7443   41.1378  134.2878 C   0  0  0  0  0  0  0  0  0  0  0  0
    9.9543   39.8870  134.8640 O   0  0  0  0  0  0  0  0  0  0  0  0
    9.4065   42.1885  135.1314 C   0  0  0  0  0  0  0  0  0  0  0  0
    9.2005   43.4229  134.5499 C   0  0  0  0  0  0  0  0  0  0  0  0
    9.3309   43.5825  133.1803 C   0  0  0  0  0  0  0  0  0  0  0  0
    9.1109   44.8468  132.6609 O   0  0  0  0  0  0  0  0  0  0  0  0
    9.7446   45.3262  131.5021 C   0  0  0  0  0  0  0  0  0  0  0  0
   10.2035   39.0877  134.2824 H   0  0  0  0  0  0  0  0  0  0  0  0
   10.6947   46.8118  125.3258 O   0  0  0  0  0  0  0  0  0  0  0  0
   10.3402   46.2328  126.5569 C   0  0  0  0  0  0  0  0  0  0  0  0
   10.7484   44.9612  126.8931 C   0  0  0  0  0  0  0  0  0  0  0  0
   10.3911   44.4011  128.1134 C   0  0  0  0  0  0  0  0  0  0  0  0
    9.6239   45.0809  129.0295 C   0  0  0  0  0  0  0  0  0  0  0  0
    9.2237   46.3505  128.6789 C   0  0  0  0  0  0  0  0  0  0  0  0
    9.5711   46.9239  127.4666 C   0  0  0  0  0  0  0  0  0  0  0  0
   11.2475   46.3431  124.6481 H   0  0  0  0  0  0  0  0  0  0  0  0
    9.4659   46.7707  131.3617 C   0  0  0  0  0  0  0  0  0  0  0  0
   10.3958   47.6714  130.8876 C   0  0  0  0  0  0  0  0  0  0  0  0
   10.0929   49.0119  130.7731 C   0  0  0  0  0  0  0  0  0  0  0  0
    8.8552   49.5177  131.1234 C   0  0  0  0  0  0  0  0  0  0  0  0
    7.9229   48.6205  131.5978 C   0  0  0  0  0  0  0  0  0  0  0  0
    8.2283   47.2683  131.7133 C   0  0  0  0  0  0  0  0  0  0  0  0
    8.5667   50.8780  131.0006 O   0  0  0  0  0  0  0  0  0  0  0  0
    7.4991   51.3242  130.1628 C   0  0  0  0  0  0  0  0  0  0  0  0
    7.4776   50.5939  128.8607 C   0  0  0  0  0  0  0  0  0  0  0  0
    6.2735   49.8707  128.6137 N   0  0  0  0  0  0  0  0  0  0  0  0
    6.4443   48.6107  127.9720 C   0  0  0  0  0  0  0  0  0  0  0  0
    5.8926   47.5740  128.9275 C   0  0  0  0  0  0  0  0  0  0  0  0
    4.7875   48.3431  129.6252 C   0  0  0  0  0  0  0  0  0  0  0  0
    5.3944   49.7344  129.7301 C   0  0  0  0  0  0  0  0  0  0  0  0
 13 14  1  0  0  0
 14 15  2  0  0  0
 15 16  1  0  0  0
 16 17  2  0  0  0
 17 18  1  0  0  0
 18 19  2  0  0  0
 17  1  1  0  0  0
  1  2  1  0  0  0
  2  3  1  0  0  0
  3  4  2  0  0  0
  4  5  1  0  0  0
  5  6  1  0  0  0
  5  7  2  0  0  0
  7  8  1  0  0  0
  8  9  2  0  0  0
  9 10  1  0  0  0
 10 11  1  0  0  0
 11 21  1  0  0  0
 21 22  2  0  0  0
 22 23  1  0  0  0
 23 24  2  0  0  0
 24 27  1  0  0  0
 27 28  1  0  0  0
 28 29  1  0  0  0
 29 30  1  0  0  0
 30 31  1  0  0  0
 31 32  1  0  0  0
 32 33  1  0  0  0
 33 34  1  0  0  0
 24 25  1  0  0  0
 25 26  2  0  0  0
 19 14  1  0  0  0
 11  1  1  0  0  0
 26 21  1  0  0  0
  9  3  1  0  0  0
 34 30  1  0  0  0
 13 20  1  0  0  0
  6 12  1  0  0  0
M  END
> <minimizedAffinity>
20.00672

> <CNNscore>
0.3959924877

> <CNNaffinity>
7.3318748474

> <CNN_VS>
2.9033672810

> <CNNaffinity_variance>
0.9837059975

$$$$
[H]Oc1c([H])c([H])c([C@@]2([H])Sc3c([H])c(O[H])c([H])c([H])c3O[C@]2([H])c2c([H])c([H])c(OC([H])([H])C([H])([H])N3C([H])([H])C([H])([H])C([H])([H])C3([H])[H])c([H])c2[H])c([H])c1[H]


 34 38  0  0  0  0  0  0  0  0999 V2000
    9.1088   45.7792  131.3745 C   0  0  0  0  0  0  0  0  0  0  0  0
   10.0477   46.7770  130.1765 S   0  0  0  0  0  0  0  0  0  0  0  0
   10.0018   45.8617  128.6416 C   0  0  0  0  0  0  0  0  0  0  0  0
   10.4743   46.3633  127.4704 C   0  0  0  0  0  0  0  0  0  0  0  0
   10.4173   45.6168  126.3008 C   0  0  0  0  0  0  0  0  0  0  0  0
   10.9025   46.1353  125.1024 O   0  0  0  0  0  0  0  0  0  0  0  0
    9.8793   44.3362  126.2792 C   0  0  0  0  0  0  0  0  0  0  0  0
    9.4012   43.8327  127.4718 C   0  0  0  0  0  0  0  0  0  0  0  0
    9.4662   44.5915  128.6286 C   0  0  0  0  0  0  0  0  0  0  0  0
    8.9695   44.0273  129.7911 O   0  0  0  0  0  0  0  0  0  0  0  0
    9.4616   44.3361  131.0705 C   0  0  0  0  0  0  0  0  0  0  0  0
   11.3055   47.0713  125.0722 H   0  0  0  0  0  0  0  0  0  0  0  0
    9.8947   47.2122  136.8188 O   0  0  0  0  0  0  0  0  0  0  0  0
    9.7157   46.8611  135.4692 C   0  0  0  0  0  0  0  0  0  0  0  0
   10.7700   46.8657  134.5831 C   0  0  0  0  0  0  0  0  0  0  0  0
   10.5790   46.5162  133.2520 C   0  0  0  0  0  0  0  0  0  0  0  0
    9.3457   46.1545  132.7642 C   0  0  0  0  0  0  0  0  0  0  0  0
    8.3021   46.1548  133.6620 C   0  0  0  0  0  0  0  0  0  0  0  0
    8.4751   46.5004  134.9923 C   0  0  0  0  0  0  0  0  0  0  0  0
   10.7737   47.4762  137.1958 H   0  0  0  0  0  0  0  0  0  0  0  0
    8.8767   43.3990  132.0521 C   0  0  0  0  0  0  0  0  0  0  0  0
    9.5185   43.0357  133.2169 C   0  0  0  0  0  0  0  0  0  0  0  0
    8.9353   42.1570  134.1055 C   0  0  0  0  0  0  0  0  0  0  0  0
    7.6907   41.6004  133.8782 C   0  0  0  0  0  0  0  0  0  0  0  0
    7.0459   41.9611  132.7148 C   0  0  0  0  0  0  0  0  0  0  0  0
    7.6341   42.8474  131.8185 C   0  0  0  0  0  0  0  0  0  0  0  0
    7.1161   40.7125  134.7893 O   0  0  0  0  0  0  0  0  0  0  0  0
    5.7565   40.8671  135.1997 C   0  0  0  0  0  0  0  0  0  0  0  0
    5.6550   41.2495  136.6394 C   0  0  0  0  0  0  0  0  0  0  0  0
    5.3822   42.6316  136.8613 N   0  0  0  0  0  0  0  0  0  0  0  0
    4.8676   43.3359  135.7354 C   0  0  0  0  0  0  0  0  0  0  0  0
    3.5062   43.8531  136.1492 C   0  0  0  0  0  0  0  0  0  0  0  0
    3.6953   44.0877  137.6354 C   0  0  0  0  0  0  0  0  0  0  0  0
    4.6042   42.9298  138.0205 C   0  0  0  0  0  0  0  0  0  0  0  0
 13 14  1  0  0  0
 14 15  2  0  0  0
 15 16  1  0  0  0
 16 17  2  0  0  0
 17 18  1  0  0  0
 18 19  2  0  0  0
 17  1  1  0  0  0
  1  2  1  0  0  0
  2  3  1  0  0  0
  3  4  2  0  0  0
  4  5  1  0  0  0
  5  6  1  0  0  0
  5  7  2  0  0  0
  7  8  1  0  0  0
  8  9  2  0  0  0
  9 10  1  0  0  0
 10 11  1  0  0  0
 11 21  1  0  0  0
 21 22  2  0  0  0
 22 23  1  0  0  0
 23 24  2  0  0  0
 24 27  1  0  0  0
 27 28  1  0  0  0
 28 29  1  0  0  0
 29 30  1  0  0  0
 30 31  1  0  0  0
 31 32  1  0  0  0
 32 33  1  0  0  0
 33 34  1  0  0  0
 24 25  1  0  0  0
 25 26  2  0  0  0
 19 14  1  0  0  0
 11  1  1  0  0  0
 26 21  1  0  0  0
  9  3  1  0  0  0
 34 30  1  0  0  0
 13 20  1  0  0  0
  6 12  1  0  0  0
M  END
> <minimizedAffinity>
38.15765

> <CNNscore>
0.3927951455

> <CNNaffinity>
6.8658165932

> <CNN_VS>
2.6968593597

> <CNNaffinity_variance>
1.0090334415

$$$$
[H]Oc1c([H])c([H])c([C@@]2([H])Sc3c([H])c(O[H])c([H])c([H])c3O[C@]2([H])c2c([H])c([H])c(OC([H])([H])C([H])([H])N3C([H])([H])C([H])([H])C([H])([H])C3([H])[H])c([H])c2[H])c([H])c1[H]


 34 38  0  0  0  0  0  0  0  0999 V2000
    9.1008   45.7734  131.1971 C   0  0  0  0  0  0  0  0  0  0  0  0
   10.1215   44.7329  132.2870 S   0  0  0  0  0  0  0  0  0  0  0  0
    9.8663   45.3655  133.9395 C   0  0  0  0  0  0  0  0  0  0  0  0
   10.3530   44.7483  135.0480 C   0  0  0  0  0  0  0  0  0  0  0  0
   10.1295   45.2752  136.3132 C   0  0  0  0  0  0  0  0  0  0  0  0
   10.6301   44.6388  137.4467 O   0  0  0  0  0  0  0  0  0  0  0  0
    9.4048   46.4460  136.4974 C   0  0  0  0  0  0  0  0  0  0  0  0
    8.9133   47.0678  135.3678 C   0  0  0  0  0  0  0  0  0  0  0  0
    9.1459   46.5280  134.1138 C   0  0  0  0  0  0  0  0  0  0  0  0
    8.6254   47.2014  133.0219 O   0  0  0  0  0  0  0  0  0  0  0  0
    9.2181   47.1812  131.7481 C   0  0  0  0  0  0  0  0  0  0  0  0
   11.1672   43.7769  137.3580 H   0  0  0  0  0  0  0  0  0  0  0  0
   10.4073   45.2543  125.6894 O   0  0  0  0  0  0  0  0  0  0  0  0
   10.0931   45.3959  127.0524 C   0  0  0  0  0  0  0  0  0  0  0  0
   10.5405   46.4755  127.7810 C   0  0  0  0  0  0  0  0  0  0  0  0
   10.2223   46.6032  129.1275 C   0  0  0  0  0  0  0  0  0  0  0  0
    9.4566   45.6706  129.7861 C   0  0  0  0  0  0  0  0  0  0  0  0
    9.0171   44.5974  129.0443 C   0  0  0  0  0  0  0  0  0  0  0  0
    9.3250   44.4548  127.7012 C   0  0  0  0  0  0  0  0  0  0  0  0
   10.9571   45.9129  125.1909 H   0  0  0  0  0  0  0  0  0  0  0  0
    8.5459   48.1763  130.8868 C   0  0  0  0  0  0  0  0  0  0  0  0
    7.4694   47.8672  130.0829 C   0  0  0  0  0  0  0  0  0  0  0  0
    6.8722   48.8279  129.2942 C   0  0  0  0  0  0  0  0  0  0  0  0
    7.3160   50.1366  129.2681 C   0  0  0  0  0  0  0  0  0  0  0  0
    8.3920   50.4497  130.0703 C   0  0  0  0  0  0  0  0  0  0  0  0
    8.9944   49.4807  130.8660 C   0  0  0  0  0  0  0  0  0  0  0  0
    6.6988   51.0957  128.4631 O   0  0  0  0  0  0  0  0  0  0  0  0
    7.4713   52.0991  127.8017 C   0  0  0  0  0  0  0  0  0  0  0  0
    6.8099   53.4362  127.8663 C   0  0  0  0  0  0  0  0  0  0  0  0
    7.1782   54.3241  126.8128 N   0  0  0  0  0  0  0  0  0  0  0  0
    8.4259   54.0383  126.1881 C   0  0  0  0  0  0  0  0  0  0  0  0
    8.1144   53.7663  124.7317 C   0  0  0  0  0  0  0  0  0  0  0  0
    6.9127   54.6599  124.4930 C   0  0  0  0  0  0  0  0  0  0  0  0
    6.1777   54.5553  125.8212 C   0  0  0  0  0  0  0  0  0  0  0  0
 13 14  1  0  0  0
 14 15  2  0  0  0
 15 16  1  0  0  0
 16 17  2  0  0  0
 17 18  1  0  0  0
 18 19  2  0  0  0
 17  1  1  0  0  0
  1  2  1  0  0  0
  2  3  1  0  0  0
  3  4  2  0  0  0
  4  5  1  0  0  0
  5  6  1  0  0  0
  5  7  2  0  0  0
  7  8  1  0  0  0
  8  9  2  0  0  0
  9 10  1  0  0  0
 10 11  1  0  0  0
 11 21  1  0  0  0
 21 22  2  0  0  0
 22 23  1  0  0  0
 23 24  2  0  0  0
 24 27  1  0  0  0
 27 28  1  0  0  0
 28 29  1  0  0  0
 29 30  1  0  0  0
 30 31  1  0  0  0
 31 32  1  0  0  0
 32 33  1  0  0  0
 33 34  1  0  0  0
 24 25  1  0  0  0
 25 26  2  0  0  0
 19 14  1  0  0  0
 11  1  1  0  0  0
 26 21  1  0  0  0
  9  3  1  0  0  0
 34 30  1  0  0  0
 13 20  1  0  0  0
  6 12  1  0  0  0
M  END
> <minimizedAffinity>
5.79054

> <CNNscore>
0.3897828758

> <CNNaffinity>
7.0838251114

> <CNN_VS>
2.7611536980

> <CNNaffinity_variance>
1.1022508144

$$$$
[H]Oc1c([H])c([H])c([C@@]2([H])Sc3c([H])c(O[H])c([H])c([H])c3O[C@]2([H])c2c([H])c([H])c(OC([H])([H])C([H])([H])N3C([H])([H])C([H])([H])C([H])([H])C3([H])[H])c([H])c2[H])c([H])c1[H]


 34 38  0  0  0  0  0  0  0  0999 V2000
    9.7873   44.4371  131.5587 C   0  0  0  0  0  0  0  0  0  0  0  0
   10.8671   43.4583  132.6489 S   0  0  0  0  0  0  0  0  0  0  0  0
   10.6198   44.1153  134.2930 C   0  0  0  0  0  0  0  0  0  0  0  0
   11.1505   43.5399  135.4038 C   0  0  0  0  0  0  0  0  0  0  0  0
   10.9314   44.0844  136.6624 C   0  0  0  0  0  0  0  0  0  0  0  0
   11.4772   43.4908  137.7983 O   0  0  0  0  0  0  0  0  0  0  0  0
   10.1667   45.2309  136.8374 C   0  0  0  0  0  0  0  0  0  0  0  0
    9.6307   45.8103  135.7054 C   0  0  0  0  0  0  0  0  0  0  0  0
    9.8596   45.2534  134.4581 C   0  0  0  0  0  0  0  0  0  0  0  0
    9.2933   45.8841  133.3635 O   0  0  0  0  0  0  0  0  0  0  0  0
    9.8619   45.8595  132.0789 C   0  0  0  0  0  0  0  0  0  0  0  0
   12.0446   42.6478  137.7163 H   0  0  0  0  0  0  0  0  0  0  0  0
   11.2080   44.0386  126.0693 O   0  0  0  0  0  0  0  0  0  0  0  0
   10.8427   44.1300  127.4238 C   0  0  0  0  0  0  0  0  0  0  0  0
    9.6657   43.5839  127.8855 C   0  0  0  0  0  0  0  0  0  0  0  0
    9.3171   43.6811  129.2270 C   0  0  0  0  0  0  0  0  0  0  0  0
   10.1198   44.3183  130.1432 C   0  0  0  0  0  0  0  0  0  0  0  0
   11.2926   44.8589  129.6665 C   0  0  0  0  0  0  0  0  0  0  0  0
   11.6554   44.7708  128.3324 C   0  0  0  0  0  0  0  0  0  0  0  0
   10.6473   43.5841  125.3884 H   0  0  0  0  0  0  0  0  0  0  0  0
    9.1364   46.8106  131.2113 C   0  0  0  0  0  0  0  0  0  0  0  0
    9.6861   47.9973  130.7749 C   0  0  0  0  0  0  0  0  0  0  0  0
    8.9724   48.8562  129.9658 C   0  0  0  0  0  0  0  0  0  0  0  0
    7.6831   48.5762  129.5540 C   0  0  0  0  0  0  0  0  0  0  0  0
    7.1300   47.3909  129.9881 C   0  0  0  0  0  0  0  0  0  0  0  0
    7.8498   46.5245  130.8042 C   0  0  0  0  0  0  0  0  0  0  0  0
    6.9759   49.4580  128.7347 O   0  0  0  0  0  0  0  0  0  0  0  0
    6.4700   50.6890  129.2538 C   0  0  0  0  0  0  0  0  0  0  0  0
    7.3683   51.8360  128.9271 C   0  0  0  0  0  0  0  0  0  0  0  0
    6.9061   52.6561  127.8558 N   0  0  0  0  0  0  0  0  0  0  0  0
    6.9355   54.0573  128.1092 C   0  0  0  0  0  0  0  0  0  0  0  0
    7.8585   54.6537  127.0679 C   0  0  0  0  0  0  0  0  0  0  0  0
    7.6453   53.7259  125.8875 C   0  0  0  0  0  0  0  0  0  0  0  0
    7.4751   52.3798  126.5760 C   0  0  0  0  0  0  0  0  0  0  0  0
 13 14  1  0  0  0
 14 15  2  0  0  0
 15 16  1  0  0  0
 16 17  2  0  0  0
 17 18  1  0  0  0
 18 19  2  0  0  0
 17  1  1  0  0  0
  1  2  1  0  0  0
  2  3  1  0  0  0
  3  4  2  0  0  0
  4  5  1  0  0  0
  5  6  1  0  0  0
  5  7  2  0  0  0
  7  8  1  0  0  0
  8  9  2  0  0  0
  9 10  1  0  0  0
 10 11  1  0  0  0
 11 21  1  0  0  0
 21 22  2  0  0  0
 22 23  1  0  0  0
 23 24  2  0  0  0
 24 27  1  0  0  0
 27 28  1  0  0  0
 28 29  1  0  0  0
 29 30  1  0  0  0
 30 31  1  0  0  0
 31 32  1  0  0  0
 32 33  1  0  0  0
 33 34  1  0  0  0
 24 25  1  0  0  0
 25 26  2  0  0  0
 19 14  1  0  0  0
 11  1  1  0  0  0
 26 21  1  0  0  0
  9  3  1  0  0  0
 34 30  1  0  0  0
 13 20  1  0  0  0
  6 12  1  0  0  0
M  END
> <minimizedAffinity>
9.34609

> <CNNscore>
0.3880416453

> <CNNaffinity>
7.4431943893

> <CNN_VS>
2.8882694244

> <CNNaffinity_variance>
1.8650079966

$$$$
[H]Oc1c([H])c([H])c([C@@]2([H])Sc3c([H])c(O[H])c([H])c([H])c3O[C@]2([H])c2c([H])c([H])c(OC([H])([H])C([H])([H])N3C([H])([H])C([H])([H])C([H])([H])C3([H])[H])c([H])c2[H])c([H])c1[H]


 34 38  0  0  0  0  0  0  0  0999 V2000
    9.6769   43.7098  131.3199 C   0  0  0  0  0  0  0  0  0  0  0  0
    9.5553   42.0197  131.9842 S   0  0  0  0  0  0  0  0  0  0  0  0
    8.1661   42.0399  133.1093 C   0  0  0  0  0  0  0  0  0  0  0  0
    7.6729   40.9152  133.6910 C   0  0  0  0  0  0  0  0  0  0  0  0
    6.5905   40.9776  134.5588 C   0  0  0  0  0  0  0  0  0  0  0  0
    6.0880   39.8219  135.1524 O   0  0  0  0  0  0  0  0  0  0  0  0
    5.9716   42.1827  134.8662 C   0  0  0  0  0  0  0  0  0  0  0  0
    6.4773   43.3210  134.2723 C   0  0  0  0  0  0  0  0  0  0  0  0
    7.5574   43.2399  133.4093 C   0  0  0  0  0  0  0  0  0  0  0  0
    8.0159   44.4192  132.8474 O   0  0  0  0  0  0  0  0  0  0  0  0
    9.3560   44.6301  132.4816 C   0  0  0  0  0  0  0  0  0  0  0  0
    6.5115   38.9159  134.9547 H   0  0  0  0  0  0  0  0  0  0  0  0
   14.7347   44.8187  128.9747 O   0  0  0  0  0  0  0  0  0  0  0  0
   13.4767   44.5470  129.5406 C   0  0  0  0  0  0  0  0  0  0  0  0
   12.3345   44.5325  128.7713 C   0  0  0  0  0  0  0  0  0  0  0  0
   11.0976   44.2621  129.3435 C   0  0  0  0  0  0  0  0  0  0  0  0
   10.9582   44.0002  130.6858 C   0  0  0  0  0  0  0  0  0  0  0  0
   12.1088   44.0183  131.4413 C   0  0  0  0  0  0  0  0  0  0  0  0
   13.3499   44.2859  130.8868 C   0  0  0  0  0  0  0  0  0  0  0  0
   14.8624   45.0102  128.0095 H   0  0  0  0  0  0  0  0  0  0  0  0
    9.5436   46.0542  132.1347 C   0  0  0  0  0  0  0  0  0  0  0  0
    9.8074   47.0269  133.0754 C   0  0  0  0  0  0  0  0  0  0  0  0
    9.9753   48.3452  132.7070 C   0  0  0  0  0  0  0  0  0  0  0  0
    9.8891   48.7565  131.3902 C   0  0  0  0  0  0  0  0  0  0  0  0
    9.6254   47.7872  130.4468 C   0  0  0  0  0  0  0  0  0  0  0  0
    9.4561   46.4574  130.8183 C   0  0  0  0  0  0  0  0  0  0  0  0
   10.0619   50.0958  131.0361 O   0  0  0  0  0  0  0  0  0  0  0  0
    8.9822   50.8482  130.4803 C   0  0  0  0  0  0  0  0  0  0  0  0
    7.6604   50.2255  130.7874 C   0  0  0  0  0  0  0  0  0  0  0  0
    6.8950   49.8764  129.6358 N   0  0  0  0  0  0  0  0  0  0  0  0
    7.5794   49.0828  128.6712 C   0  0  0  0  0  0  0  0  0  0  0  0
    6.7983   47.7908  128.5591 C   0  0  0  0  0  0  0  0  0  0  0  0
    5.3811   48.2525  128.8380 C   0  0  0  0  0  0  0  0  0  0  0  0
    5.6047   49.3234  129.8955 C   0  0  0  0  0  0  0  0  0  0  0  0
 13 14  1  0  0  0
 14 15  2  0  0  0
 15 16  1  0  0  0
 16 17  2  0  0  0
 17 18  1  0  0  0
 18 19  2  0  0  0
 17  1  1  0  0  0
  1  2  1  0  0  0
  2  3  1  0  0  0
  3  4  2  0  0  0
  4  5  1  0  0  0
  5  6  1  0  0  0
  5  7  2  0  0  0
  7  8  1  0  0  0
  8  9  2  0  0  0
  9 10  1  0  0  0
 10 11  1  0  0  0
 11 21  1  0  0  0
 21 22  2  0  0  0
 22 23  1  0  0  0
 23 24  2  0  0  0
 24 27  1  0  0  0
 27 28  1  0  0  0
 28 29  1  0  0  0
 29 30  1  0  0  0
 30 31  1  0  0  0
 31 32  1  0  0  0
 32 33  1  0  0  0
 33 34  1  0  0  0
 24 25  1  0  0  0
 25 26  2  0  0  0
 19 14  1  0  0  0
 11  1  1  0  0  0
 26 21  1  0  0  0
  9  3  1  0  0  0
 34 30  1  0  0  0
 13 20  1  0  0  0
  6 12  1  0  0  0
M  END
> <minimizedAffinity>
14.76414

> <CNNscore>
0.3864240944

> <CNNaffinity>
7.6118750572

> <CNN_VS>
2.9414119720

> <CNNaffinity_variance>
1.0007959604

$$$$
[H]Oc1c([H])c([H])c([C@@]2([H])Sc3c([H])c(O[H])c([H])c([H])c3O[C@]2([H])c2c([H])c([H])c(OC([H])([H])C([H])([H])N3C([H])([H])C([H])([H])C([H])([H])C3([H])[H])c([H])c2[H])c([H])c1[H]


 34 38  0  0  0  0  0  0  0  0999 V2000
    8.1317   47.7780  132.5288 C   0  0  0  0  0  0  0  0  0  0  0  0
    7.9352   49.5862  132.4629 S   0  0  0  0  0  0  0  0  0  0  0  0
    7.6570   49.9812  130.7417 C   0  0  0  0  0  0  0  0  0  0  0  0
    7.3198   51.2272  130.3169 C   0  0  0  0  0  0  0  0  0  0  0  0
    7.1120   51.4887  128.9691 C   0  0  0  0  0  0  0  0  0  0  0  0
    6.7660   52.7675  128.5383 O   0  0  0  0  0  0  0  0  0  0  0  0
    7.2391   50.4957  128.0060 C   0  0  0  0  0  0  0  0  0  0  0  0
    7.5817   49.2326  128.4438 C   0  0  0  0  0  0  0  0  0  0  0  0
    7.7851   48.9900  129.7921 C   0  0  0  0  0  0  0  0  0  0  0  0
    8.1270   47.7012  130.1646 O   0  0  0  0  0  0  0  0  0  0  0  0
    8.9190   47.4065  131.2872 C   0  0  0  0  0  0  0  0  0  0  0  0
    6.6615   53.5264  129.2110 H   0  0  0  0  0  0  0  0  0  0  0  0
   10.4000   45.8015  137.3516 O   0  0  0  0  0  0  0  0  0  0  0  0
    9.8496   46.3023  136.1588 C   0  0  0  0  0  0  0  0  0  0  0  0
   10.3976   47.3930  135.5209 C   0  0  0  0  0  0  0  0  0  0  0  0
    9.8437   47.8773  134.3423 C   0  0  0  0  0  0  0  0  0  0  0  0
    8.7380   47.2985  133.7659 C   0  0  0  0  0  0  0  0  0  0  0  0
    8.2018   46.2095  134.4153 C   0  0  0  0  0  0  0  0  0  0  0  0
    8.7416   45.7137  135.5910 C   0  0  0  0  0  0  0  0  0  0  0  0
   11.1972   46.2004  137.7874 H   0  0  0  0  0  0  0  0  0  0  0  0
    9.2789   45.9735  131.2617 C   0  0  0  0  0  0  0  0  0  0  0  0
    8.3492   44.9695  131.0929 C   0  0  0  0  0  0  0  0  0  0  0  0
    8.7295   43.6441  131.0756 C   0  0  0  0  0  0  0  0  0  0  0  0
   10.0478   43.2563  131.2247 C   0  0  0  0  0  0  0  0  0  0  0  0
   10.9802   44.2569  131.3937 C   0  0  0  0  0  0  0  0  0  0  0  0
   10.5966   45.5939  131.4111 C   0  0  0  0  0  0  0  0  0  0  0  0
   10.4141   41.9093  131.2046 O   0  0  0  0  0  0  0  0  0  0  0  0
   10.3551   41.1557  129.9924 C   0  0  0  0  0  0  0  0  0  0  0  0
    9.4005   41.7575  129.0146 C   0  0  0  0  0  0  0  0  0  0  0  0
   10.0056   42.6391  128.0710 N   0  0  0  0  0  0  0  0  0  0  0  0
    9.1322   43.6097  127.5021 C   0  0  0  0  0  0  0  0  0  0  0  0
    9.7010   44.9606  127.8807 C   0  0  0  0  0  0  0  0  0  0  0  0
   11.1895   44.6747  127.9296 C   0  0  0  0  0  0  0  0  0  0  0  0
   11.2171   43.2629  128.4965 C   0  0  0  0  0  0  0  0  0  0  0  0
 13 14  1  0  0  0
 14 15  2  0  0  0
 15 16  1  0  0  0
 16 17  2  0  0  0
 17 18  1  0  0  0
 18 19  2  0  0  0
 17  1  1  0  0  0
  1  2  1  0  0  0
  2  3  1  0  0  0
  3  4  2  0  0  0
  4  5  1  0  0  0
  5  6  1  0  0  0
  5  7  2  0  0  0
  7  8  1  0  0  0
  8  9  2  0  0  0
  9 10  1  0  0  0
 10 11  1  0  0  0
 11 21  1  0  0  0
 21 22  2  0  0  0
 22 23  1  0  0  0
 23 24  2  0  0  0
 24 27  1  0  0  0
 27 28  1  0  0  0
 28 29  1  0  0  0
 29 30  1  0  0  0
 30 31  1  0  0  0
 31 32  1  0  0  0
 32 33  1  0  0  0
 33 34  1  0  0  0
 24 25  1  0  0  0
 25 26  2  0  0  0
 19 14  1  0  0  0
 11  1  1  0  0  0
 26 21  1  0  0  0
  9  3  1  0  0  0
 34 30  1  0  0  0
 13 20  1  0  0  0
  6 12  1  0  0  0
M  END
> <minimizedAffinity>
8.68041

> <CNNscore>
0.3825175166

> <CNNaffinity>
7.3680152893

> <CNN_VS>
2.8183948994

> <CNNaffinity_variance>
1.2711265087

$$$$
[H]Oc1c([H])c([H])c([C@@]2([H])Sc3c([H])c(O[H])c([H])c([H])c3O[C@]2([H])c2c([H])c([H])c(OC([H])([H])C([H])([H])N3C([H])([H])C([H])([H])C([H])([H])C3([H])[H])c([H])c2[H])c([H])c1[H]


 34 38  0  0  0  0  0  0  0  0999 V2000
    9.2506   46.5147  131.4936 C   0  0  0  0  0  0  0  0  0  0  0  0
    9.2324   48.2914  131.8881 S   0  0  0  0  0  0  0  0  0  0  0  0
    8.2684   49.0649  130.5964 C   0  0  0  0  0  0  0  0  0  0  0  0
    7.9091   50.3750  130.6296 C   0  0  0  0  0  0  0  0  0  0  0  0
    7.1583   50.9342  129.6039 C   0  0  0  0  0  0  0  0  0  0  0  0
    6.7919   52.2777  129.6424 O   0  0  0  0  0  0  0  0  0  0  0  0
    6.7463   50.1840  128.5098 C   0  0  0  0  0  0  0  0  0  0  0  0
    7.1144   48.8543  128.4822 C   0  0  0  0  0  0  0  0  0  0  0  0
    7.8635   48.3134  129.5139 C   0  0  0  0  0  0  0  0  0  0  0  0
    8.1996   46.9734  129.4247 O   0  0  0  0  0  0  0  0  0  0  0  0
    9.3693   46.4320  129.9841 C   0  0  0  0  0  0  0  0  0  0  0  0
    7.0723   52.8654  130.4268 H   0  0  0  0  0  0  0  0  0  0  0  0
   13.1831   43.5401  134.3216 O   0  0  0  0  0  0  0  0  0  0  0  0
   12.2221   44.2827  133.6136 C   0  0  0  0  0  0  0  0  0  0  0  0
   12.5828   45.1164  132.5784 C   0  0  0  0  0  0  0  0  0  0  0  0
   11.6225   45.8445  131.8867 C   0  0  0  0  0  0  0  0  0  0  0  0
   10.2860   45.7676  132.1993 C   0  0  0  0  0  0  0  0  0  0  0  0
    9.9414   44.9302  133.2361 C   0  0  0  0  0  0  0  0  0  0  0  0
   10.8859   44.1973  133.9360 C   0  0  0  0  0  0  0  0  0  0  0  0
   14.1531   43.5772  134.1158 H   0  0  0  0  0  0  0  0  0  0  0  0
    9.5317   45.0413  129.5117 C   0  0  0  0  0  0  0  0  0  0  0  0
   10.4402   44.6807  128.5394 C   0  0  0  0  0  0  0  0  0  0  0  0
   10.5583   43.3697  128.1280 C   0  0  0  0  0  0  0  0  0  0  0  0
    9.7812   42.3593  128.6626 C   0  0  0  0  0  0  0  0  0  0  0  0
    8.8718   42.7157  129.6348 C   0  0  0  0  0  0  0  0  0  0  0  0
    8.7526   44.0381  130.0498 C   0  0  0  0  0  0  0  0  0  0  0  0
    9.9148   41.0376  128.2335 O   0  0  0  0  0  0  0  0  0  0  0  0
   10.4527   40.7405  126.9438 C   0  0  0  0  0  0  0  0  0  0  0  0
   10.3281   39.2894  126.6152 C   0  0  0  0  0  0  0  0  0  0  0  0
   11.4023   38.7708  125.8335 N   0  0  0  0  0  0  0  0  0  0  0  0
   12.0074   39.7020  124.9418 C   0  0  0  0  0  0  0  0  0  0  0  0
   13.4584   39.8041  125.3613 C   0  0  0  0  0  0  0  0  0  0  0  0
   13.7330   38.4106  125.8926 C   0  0  0  0  0  0  0  0  0  0  0  0
   12.4093   38.0645  126.5583 C   0  0  0  0  0  0  0  0  0  0  0  0
 13 14  1  0  0  0
 14 15  2  0  0  0
 15 16  1  0  0  0
 16 17  2  0  0  0
 17 18  1  0  0  0
 18 19  2  0  0  0
 17  1  1  0  0  0
  1  2  1  0  0  0
  2  3  1  0  0  0
  3  4  2  0  0  0
  4  5  1  0  0  0
  5  6  1  0  0  0
  5  7  2  0  0  0
  7  8  1  0  0  0
  8  9  2  0  0  0
  9 10  1  0  0  0
 10 11  1  0  0  0
 11 21  1  0  0  0
 21 22  2  0  0  0
 22 23  1  0  0  0
 23 24  2  0  0  0
 24 27  1  0  0  0
 27 28  1  0  0  0
 28 29  1  0  0  0
 29 30  1  0  0  0
 30 31  1  0  0  0
 31 32  1  0  0  0
 32 33  1  0  0  0
 33 34  1  0  0  0
 24 25  1  0  0  0
 25 26  2  0  0  0
 19 14  1  0  0  0
 11  1  1  0  0  0
 26 21  1  0  0  0
  9  3  1  0  0  0
 34 30  1  0  0  0
 13 20  1  0  0  0
  6 12  1  0  0  0
M  END
> <minimizedAffinity>
7.32969

> <CNNscore>
0.3811500371

> <CNNaffinity>
7.5658707619

> <CNN_VS>
2.8837318420

> <CNNaffinity_variance>
0.7669908404

$$$$
[H]Oc1c([H])c([H])c([C@]2([H])Sc3c([H])c(O[H])c([H])c([H])c3O[C@]2([H])c2c([H])c([H])c(OC([H])([H])C([H])([H])N3C([H])([H])C([H])([H])C([H])([H])C([H])([H])C3([H])[H])c([H])c2[H])c([H])c1[H]


 35 39  0  0  0  0  0  0  0  0999 V2000
   11.4058   45.3741  131.3086 C   0  0  0  0  0  0  0  0  0  0  0  0
    9.9831   45.1488  132.4659 S   0  0  0  0  0  0  0  0  0  0  0  0
   10.4721   46.1857  133.8109 C   0  0  0  0  0  0  0  0  0  0  0  0
    9.9223   46.0350  135.0398 C   0  0  0  0  0  0  0  0  0  0  0  0
   10.2895   46.8339  136.1244 C   0  0  0  0  0  0  0  0  0  0  0  0
    9.7227   46.6738  137.3783 O   0  0  0  0  0  0  0  0  0  0  0  0
   11.2431   47.8002  135.9168 C   0  0  0  0  0  0  0  0  0  0  0  0
   11.8053   47.9616  134.6799 C   0  0  0  0  0  0  0  0  0  0  0  0
   11.4207   47.1460  133.6015 C   0  0  0  0  0  0  0  0  0  0  0  0
   12.0385   47.3801  132.4005 O   0  0  0  0  0  0  0  0  0  0  0  0
   11.6043   46.8238  131.1586 C   0  0  0  0  0  0  0  0  0  0  0  0
   10.2188   46.0088  137.9910 H   0  0  0  0  0  0  0  0  0  0  0  0
   11.2638   41.9584  126.8038 O   0  0  0  0  0  0  0  0  0  0  0  0
   11.3105   42.8191  127.9203 C   0  0  0  0  0  0  0  0  0  0  0  0
   10.3102   42.7792  128.8663 C   0  0  0  0  0  0  0  0  0  0  0  0
   10.3310   43.6212  129.9815 C   0  0  0  0  0  0  0  0  0  0  0  0
   11.3680   44.5204  130.1588 C   0  0  0  0  0  0  0  0  0  0  0  0
   12.3422   44.5319  129.2003 C   0  0  0  0  0  0  0  0  0  0  0  0
   12.3377   43.7078  128.0924 C   0  0  0  0  0  0  0  0  0  0  0  0
   11.7298   41.0501  126.9508 H   0  0  0  0  0  0  0  0  0  0  0  0
   10.4858   47.6377  130.7025 C   0  0  0  0  0  0  0  0  0  0  0  0
    9.1890   47.1971  130.7023 C   0  0  0  0  0  0  0  0  0  0  0  0
    8.1318   47.9683  130.2717 C   0  0  0  0  0  0  0  0  0  0  0  0
    8.3396   49.2627  129.8072 C   0  0  0  0  0  0  0  0  0  0  0  0
    9.6331   49.7176  129.8013 C   0  0  0  0  0  0  0  0  0  0  0  0
   10.6767   48.9331  130.2348 C   0  0  0  0  0  0  0  0  0  0  0  0
    7.2333   49.9584  129.3964 O   0  0  0  0  0  0  0  0  0  0  0  0
    6.6582   51.1178  129.8956 C   0  0  0  0  0  0  0  0  0  0  0  0
    5.7393   51.7886  128.9029 C   0  0  0  0  0  0  0  0  0  0  0  0
    6.4916   52.4627  127.8746 N   0  0  0  0  0  0  0  0  0  0  0  0
    6.5484   53.8879  127.9898 C   0  0  0  0  0  0  0  0  0  0  0  0
    6.7860   54.4416  126.5906 C   0  0  0  0  0  0  0  0  0  0  0  0
    7.7120   53.4528  125.8948 C   0  0  0  0  0  0  0  0  0  0  0  0
    8.6577   52.8710  126.9335 C   0  0  0  0  0  0  0  0  0  0  0  0
    7.8868   51.9929  127.8854 C   0  0  0  0  0  0  0  0  0  0  0  0
 13 14  1  0  0  0
 14 15  2  0  0  0
 15 16  1  0  0  0
 16 17  2  0  0  0
 17 18  1  0  0  0
 18 19  2  0  0  0
 17  1  1  0  0  0
  1  2  1  0  0  0
  2  3  1  0  0  0
  3  4  2  0  0  0
  4  5  1  0  0  0
  5  6  1  0  0  0
  5  7  2  0  0  0
  7  8  1  0  0  0
  8  9  2  0  0  0
  9 10  1  0  0  0
 10 11  1  0  0  0
 11 21  1  0  0  0
 21 22  2  0  0  0
 22 23  1  0  0  0
 23 24  2  0  0  0
 24 27  1  0  0  0
 27 28  1  0  0  0
 28 29  1  0  0  0
 29 30  1  0  0  0
 30 31  1  0  0  0
 31 32  1  0  0  0
 32 33  1  0  0  0
 33 34  1  0  0  0
 34 35  1  0  0  0
 24 25  1  0  0  0
 25 26  2  0  0  0
 19 14  1  0  0  0
 11  1  1  0  0  0
 26 21  1  0  0  0
  9  3  1  0  0  0
 35 30  1  0  0  0
 13 20  1  0  0  0
  6 12  1  0  0  0
M  END
> <minimizedAffinity>
28.03111

> <CNNscore>
0.4050941765

> <CNNaffinity>
7.1027588844

> <CNN_VS>
2.8772861958

> <CNNaffinity_variance>
2.4196250439

$$$$
[H]Oc1c([H])c([H])c([C@]2([H])Sc3c([H])c(O[H])c([H])c([H])c3O[C@]2([H])c2c([H])c([H])c(OC([H])([H])C([H])([H])N3C([H])([H])C([H])([H])C([H])([H])C([H])([H])C3([H])[H])c([H])c2[H])c([H])c1[H]


 35 39  0  0  0  0  0  0  0  0999 V2000
    9.2519   47.8071  130.1957 C   0  0  0  0  0  0  0  0  0  0  0  0
    9.5274   46.2423  129.2523 S   0  0  0  0  0  0  0  0  0  0  0  0
   11.1840   45.8481  129.7254 C   0  0  0  0  0  0  0  0  0  0  0  0
   11.9332   44.9952  128.9863 C   0  0  0  0  0  0  0  0  0  0  0  0
   13.2462   44.6665  129.3292 C   0  0  0  0  0  0  0  0  0  0  0  0
   14.0062   43.7933  128.5682 O   0  0  0  0  0  0  0  0  0  0  0  0
   13.7775   45.2387  130.4589 C   0  0  0  0  0  0  0  0  0  0  0  0
   13.0302   46.1015  131.2133 C   0  0  0  0  0  0  0  0  0  0  0  0
   11.7099   46.4187  130.8495 C   0  0  0  0  0  0  0  0  0  0  0  0
   11.0389   47.2926  131.6649 O   0  0  0  0  0  0  0  0  0  0  0  0
    9.6330   47.5339  131.5899 C   0  0  0  0  0  0  0  0  0  0  0  0
   14.5547   44.2432  127.8196 H   0  0  0  0  0  0  0  0  0  0  0  0
    4.3837   50.3990  128.9453 O   0  0  0  0  0  0  0  0  0  0  0  0
    5.6017   49.7645  129.2670 C   0  0  0  0  0  0  0  0  0  0  0  0
    5.7998   48.4415  128.9391 C   0  0  0  0  0  0  0  0  0  0  0  0
    6.9961   47.7881  129.2468 C   0  0  0  0  0  0  0  0  0  0  0  0
    8.0157   48.4649  129.8931 C   0  0  0  0  0  0  0  0  0  0  0  0
    7.7835   49.7756  130.2028 C   0  0  0  0  0  0  0  0  0  0  0  0
    6.6082   50.4370  129.9069 C   0  0  0  0  0  0  0  0  0  0  0  0
    4.3734   50.8474  128.0166 H   0  0  0  0  0  0  0  0  0  0  0  0
    8.9809   46.4351  132.2890 C   0  0  0  0  0  0  0  0  0  0  0  0
    8.4535   45.3461  131.6473 C   0  0  0  0  0  0  0  0  0  0  0  0
    7.8379   44.3069  132.3098 C   0  0  0  0  0  0  0  0  0  0  0  0
    7.7227   44.3170  133.6959 C   0  0  0  0  0  0  0  0  0  0  0  0
    8.2460   45.4013  134.3521 C   0  0  0  0  0  0  0  0  0  0  0  0
    8.8571   46.4304  133.6739 C   0  0  0  0  0  0  0  0  0  0  0  0
    7.0944   43.2452  134.2731 O   0  0  0  0  0  0  0  0  0  0  0  0
    7.4337   41.9004  134.2896 C   0  0  0  0  0  0  0  0  0  0  0  0
    8.4242   41.5342  133.2105 C   0  0  0  0  0  0  0  0  0  0  0  0
    9.5937   42.3744  133.2745 N   0  0  0  0  0  0  0  0  0  0  0  0
   10.4009   42.2151  134.4453 C   0  0  0  0  0  0  0  0  0  0  0  0
   11.1510   43.5245  134.6543 C   0  0  0  0  0  0  0  0  0  0  0  0
   11.4905   44.0453  133.2640 C   0  0  0  0  0  0  0  0  0  0  0  0
   11.7561   42.8531  132.3585 C   0  0  0  0  0  0  0  0  0  0  0  0
   10.4734   42.0965  132.1272 C   0  0  0  0  0  0  0  0  0  0  0  0
 13 14  1  0  0  0
 14 15  2  0  0  0
 15 16  1  0  0  0
 16 17  2  0  0  0
 17 18  1  0  0  0
 18 19  2  0  0  0
 17  1  1  0  0  0
  1  2  1  0  0  0
  2  3  1  0  0  0
  3  4  2  0  0  0
  4  5  1  0  0  0
  5  6  1  0  0  0
  5  7  2  0  0  0
  7  8  1  0  0  0
  8  9  2  0  0  0
  9 10  1  0  0  0
 10 11  1  0  0  0
 11 21  1  0  0  0
 21 22  2  0  0  0
 22 23  1  0  0  0
 23 24  2  0  0  0
 24 27  1  0  0  0
 27 28  1  0  0  0
 28 29  1  0  0  0
 29 30  1  0  0  0
 30 31  1  0  0  0
 31 32  1  0  0  0
 32 33  1  0  0  0
 33 34  1  0  0  0
 34 35  1  0  0  0
 24 25  1  0  0  0
 25 26  2  0  0  0
 19 14  1  0  0  0
 11  1  1  0  0  0
 26 21  1  0  0  0
  9  3  1  0  0  0
 35 30  1  0  0  0
 13 20  1  0  0  0
  6 12  1  0  0  0
M  END
> <minimizedAffinity>
8.96874

> <CNNscore>
0.4042180777

> <CNNaffinity>
7.6616249084

> <CNN_VS>
3.0969672203

> <CNNaffinity_variance>
0.6083179712

$$$$
[H]Oc1c([H])c([H])c([C@]2([H])Sc3c([H])c(O[H])c([H])c([H])c3O[C@]2([H])c2c([H])c([H])c(OC([H])([H])C([H])([H])N3C([H])([H])C([H])([H])C([H])([H])C([H])([H])C3([H])[H])c([H])c2[H])c([H])c1[H]


 35 39  0  0  0  0  0  0  0  0999 V2000
    9.6803   46.1561  129.0175 C   0  0  0  0  0  0  0  0  0  0  0  0
    9.7656   47.8569  129.7346 S   0  0  0  0  0  0  0  0  0  0  0  0
    8.1266   48.4397  129.4221 C   0  0  0  0  0  0  0  0  0  0  0  0
    7.8467   49.7650  129.4332 C   0  0  0  0  0  0  0  0  0  0  0  0
    6.5644   50.2588  129.1857 C   0  0  0  0  0  0  0  0  0  0  0  0
    6.2858   51.6158  129.1989 O   0  0  0  0  0  0  0  0  0  0  0  0
    5.5665   49.3523  128.9239 C   0  0  0  0  0  0  0  0  0  0  0  0
    5.8374   48.0113  128.9100 C   0  0  0  0  0  0  0  0  0  0  0  0
    7.1361   47.5358  129.1620 C   0  0  0  0  0  0  0  0  0  0  0  0
    7.3129   46.1770  129.1263 O   0  0  0  0  0  0  0  0  0  0  0  0
    8.4887   45.5132  129.5925 C   0  0  0  0  0  0  0  0  0  0  0  0
    6.3964   52.0848  128.2870 H   0  0  0  0  0  0  0  0  0  0  0  0
   14.6670   43.4917  128.9012 O   0  0  0  0  0  0  0  0  0  0  0  0
   13.4189   44.1487  128.9168 C   0  0  0  0  0  0  0  0  0  0  0  0
   12.9931   44.7970  130.0550 C   0  0  0  0  0  0  0  0  0  0  0  0
   11.7610   45.4550  130.0983 C   0  0  0  0  0  0  0  0  0  0  0  0
   10.9366   45.4684  128.9868 C   0  0  0  0  0  0  0  0  0  0  0  0
   11.3918   44.8149  127.8761 C   0  0  0  0  0  0  0  0  0  0  0  0
   12.6056   44.1596  127.8154 C   0  0  0  0  0  0  0  0  0  0  0  0
   15.4540   44.0868  128.6012 H   0  0  0  0  0  0  0  0  0  0  0  0
    8.3741   45.4254  131.0418 C   0  0  0  0  0  0  0  0  0  0  0  0
    8.0949   46.5039  131.8385 C   0  0  0  0  0  0  0  0  0  0  0  0
    7.9857   46.4193  133.2093 C   0  0  0  0  0  0  0  0  0  0  0  0
    8.1572   45.2031  133.8618 C   0  0  0  0  0  0  0  0  0  0  0  0
    8.4375   44.1142  133.0770 C   0  0  0  0  0  0  0  0  0  0  0  0
    8.5433   44.2175  131.7093 C   0  0  0  0  0  0  0  0  0  0  0  0
    8.0336   45.2094  135.2261 O   0  0  0  0  0  0  0  0  0  0  0  0
    8.9886   45.3703  136.2191 C   0  0  0  0  0  0  0  0  0  0  0  0
   10.0095   46.4304  135.8819 C   0  0  0  0  0  0  0  0  0  0  0  0
   11.0515   45.8967  135.0409 N   0  0  0  0  0  0  0  0  0  0  0  0
   10.9234   44.5106  134.7093 C   0  0  0  0  0  0  0  0  0  0  0  0
   12.3230   43.9911  134.4058 C   0  0  0  0  0  0  0  0  0  0  0  0
   13.0544   45.1278  133.7043 C   0  0  0  0  0  0  0  0  0  0  0  0
   12.0484   45.8955  132.8613 C   0  0  0  0  0  0  0  0  0  0  0  0
   11.0844   46.6246  133.7616 C   0  0  0  0  0  0  0  0  0  0  0  0
 13 14  1  0  0  0
 14 15  2  0  0  0
 15 16  1  0  0  0
 16 17  2  0  0  0
 17 18  1  0  0  0
 18 19  2  0  0  0
 17  1  1  0  0  0
  1  2  1  0  0  0
  2  3  1  0  0  0
  3  4  2  0  0  0
  4  5  1  0  0  0
  5  6  1  0  0  0
  5  7  2  0  0  0
  7  8  1  0  0  0
  8  9  2  0  0  0
  9 10  1  0  0  0
 10 11  1  0  0  0
 11 21  1  0  0  0
 21 22  2  0  0  0
 22 23  1  0  0  0
 23 24  2  0  0  0
 24 27  1  0  0  0
 27 28  1  0  0  0
 28 29  1  0  0  0
 29 30  1  0  0  0
 30 31  1  0  0  0
 31 32  1  0  0  0
 32 33  1  0  0  0
 33 34  1  0  0  0
 34 35  1  0  0  0
 24 25  1  0  0  0
 25 26  2  0  0  0
 19 14  1  0  0  0
 11  1  1  0  0  0
 26 21  1  0  0  0
  9  3  1  0  0  0
 35 30  1  0  0  0
 13 20  1  0  0  0
  6 12  1  0  0  0
M  END
> <minimizedAffinity>
2.72882

> <CNNscore>
0.3907651305

> <CNNaffinity>
7.7559370995

> <CNN_VS>
3.0307497978

> <CNNaffinity_variance>
0.6308611631

$$$$
[H]Oc1c([H])c([H])c([C@]2([H])Sc3c([H])c(O[H])c([H])c([H])c3O[C@]2([H])c2c([H])c([H])c(OC([H])([H])C([H])([H])N3C([H])([H])C([H])([H])C([H])([H])C([H])([H])C3([H])[H])c([H])c2[H])c([H])c1[H]


 35 39  0  0  0  0  0  0  0  0999 V2000
    9.7511   46.7095  132.2609 C   0  0  0  0  0  0  0  0  0  0  0  0
    7.9694   46.4858  131.8253 S   0  0  0  0  0  0  0  0  0  0  0  0
    7.7263   47.8218  130.6941 C   0  0  0  0  0  0  0  0  0  0  0  0
    6.4815   48.2766  130.4135 C   0  0  0  0  0  0  0  0  0  0  0  0
    6.2549   49.3327  129.5287 C   0  0  0  0  0  0  0  0  0  0  0  0
    4.9788   49.7924  129.2468 O   0  0  0  0  0  0  0  0  0  0  0  0
    7.3458   49.9168  128.9330 C   0  0  0  0  0  0  0  0  0  0  0  0
    8.6077   49.4658  129.2087 C   0  0  0  0  0  0  0  0  0  0  0  0
    8.8130   48.4008  130.1029 C   0  0  0  0  0  0  0  0  0  0  0  0
   10.1115   48.0180  130.3181 O   0  0  0  0  0  0  0  0  0  0  0  0
   10.4873   46.8159  130.9919 C   0  0  0  0  0  0  0  0  0  0  0  0
    4.6460   50.5427  129.8712 H   0  0  0  0  0  0  0  0  0  0  0  0
   11.5921   43.3281  136.4030 O   0  0  0  0  0  0  0  0  0  0  0  0
   11.1423   44.1639  135.3595 C   0  0  0  0  0  0  0  0  0  0  0  0
   10.0181   44.9407  135.5317 C   0  0  0  0  0  0  0  0  0  0  0  0
    9.5501   45.7768  134.5145 C   0  0  0  0  0  0  0  0  0  0  0  0
   10.2142   45.8413  133.3020 C   0  0  0  0  0  0  0  0  0  0  0  0
   11.3251   45.0567  133.1673 C   0  0  0  0  0  0  0  0  0  0  0  0
   11.8016   44.2248  134.1611 C   0  0  0  0  0  0  0  0  0  0  0  0
   12.2605   43.7783  137.0466 H   0  0  0  0  0  0  0  0  0  0  0  0
   10.3660   45.7359  130.0222 C   0  0  0  0  0  0  0  0  0  0  0  0
    9.1895   45.0801  129.7737 C   0  0  0  0  0  0  0  0  0  0  0  0
    9.0758   44.0594  128.8554 C   0  0  0  0  0  0  0  0  0  0  0  0
   10.1790   43.6395  128.1198 C   0  0  0  0  0  0  0  0  0  0  0  0
   11.3641   44.2868  128.3581 C   0  0  0  0  0  0  0  0  0  0  0  0
   11.4592   45.3040  129.2795 C   0  0  0  0  0  0  0  0  0  0  0  0
    9.9778   42.6172  127.2304 O   0  0  0  0  0  0  0  0  0  0  0  0
    9.2897   41.4209  127.3695 C   0  0  0  0  0  0  0  0  0  0  0  0
   10.2077   40.2371  127.5579 C   0  0  0  0  0  0  0  0  0  0  0  0
   10.7205   39.7732  126.2932 N   0  0  0  0  0  0  0  0  0  0  0  0
   11.7500   38.7826  126.3741 C   0  0  0  0  0  0  0  0  0  0  0  0
   12.5725   38.8853  125.0959 C   0  0  0  0  0  0  0  0  0  0  0  0
   11.5877   39.2214  123.9839 C   0  0  0  0  0  0  0  0  0  0  0  0
   10.2662   38.5353  124.2918 C   0  0  0  0  0  0  0  0  0  0  0  0
    9.6337   39.1736  125.5017 C   0  0  0  0  0  0  0  0  0  0  0  0
 13 14  1  0  0  0
 14 15  2  0  0  0
 15 16  1  0  0  0
 16 17  2  0  0  0
 17 18  1  0  0  0
 18 19  2  0  0  0
 17  1  1  0  0  0
  1  2  1  0  0  0
  2  3  1  0  0  0
  3  4  2  0  0  0
  4  5  1  0  0  0
  5  6  1  0  0  0
  5  7  2  0  0  0
  7  8  1  0  0  0
  8  9  2  0  0  0
  9 10  1  0  0  0
 10 11  1  0  0  0
 11 21  1  0  0  0
 21 22  2  0  0  0
 22 23  1  0  0  0
 23 24  2  0  0  0
 24 27  1  0  0  0
 27 28  1  0  0  0
 28 29  1  0  0  0
 29 30  1  0  0  0
 30 31  1  0  0  0
 31 32  1  0  0  0
 32 33  1  0  0  0
 33 34  1  0  0  0
 34 35  1  0  0  0
 24 25  1  0  0  0
 25 26  2  0  0  0
 19 14  1  0  0  0
 11  1  1  0  0  0
 26 21  1  0  0  0
  9  3  1  0  0  0
 35 30  1  0  0  0
 13 20  1  0  0  0
  6 12  1  0  0  0
M  END
> <minimizedAffinity>
13.09837

> <CNNscore>
0.3706643581

> <CNNaffinity>
7.5307960510

> <CNN_VS>
2.7913975716

> <CNNaffinity_variance>
1.0839849710

$$$$
[H]Oc1c([H])c([H])c([C@]2([H])Sc3c([H])c(O[H])c([H])c([H])c3O[C@]2([H])c2c([H])c([H])c(OC([H])([H])C([H])([H])N3C([H])([H])C([H])([H])C([H])([H])C([H])([H])C3([H])[H])c([H])c2[H])c([H])c1[H]


 35 39  0  0  0  0  0  0  0  0999 V2000
    9.8882   48.4805  131.6074 C   0  0  0  0  0  0  0  0  0  0  0  0
    8.1234   47.9758  131.8197 S   0  0  0  0  0  0  0  0  0  0  0  0
    7.3494   48.8940  130.5231 C   0  0  0  0  0  0  0  0  0  0  0  0
    6.0156   49.1300  130.5396 C   0  0  0  0  0  0  0  0  0  0  0  0
    5.3739   49.8556  129.5339 C   0  0  0  0  0  0  0  0  0  0  0  0
    4.0092   50.0929  129.5577 O   0  0  0  0  0  0  0  0  0  0  0  0
    6.1399   50.3378  128.5012 C   0  0  0  0  0  0  0  0  0  0  0  0
    7.4880   50.1057  128.4739 C   0  0  0  0  0  0  0  0  0  0  0  0
    8.1138   49.3724  129.4971 C   0  0  0  0  0  0  0  0  0  0  0  0
    9.4678   49.1908  129.3858 O   0  0  0  0  0  0  0  0  0  0  0  0
   10.2187   48.2784  130.1883 C   0  0  0  0  0  0  0  0  0  0  0  0
    3.7333   50.9590  130.0449 H   0  0  0  0  0  0  0  0  0  0  0  0
   13.3769   46.6349  135.6574 O   0  0  0  0  0  0  0  0  0  0  0  0
   12.5077   47.0811  134.6401 C   0  0  0  0  0  0  0  0  0  0  0  0
   11.7778   48.2365  134.8117 C   0  0  0  0  0  0  0  0  0  0  0  0
   10.9087   48.7006  133.8207 C   0  0  0  0  0  0  0  0  0  0  0  0
   10.7634   48.0014  132.6353 C   0  0  0  0  0  0  0  0  0  0  0  0
   11.5029   46.8600  132.5005 C   0  0  0  0  0  0  0  0  0  0  0  0
   12.3660   46.3865  133.4687 C   0  0  0  0  0  0  0  0  0  0  0  0
   14.3380   47.0014  135.5826 H   0  0  0  0  0  0  0  0  0  0  0  0
   10.0286   46.9556  129.6091 C   0  0  0  0  0  0  0  0  0  0  0  0
    8.8668   46.2416  129.7361 C   0  0  0  0  0  0  0  0  0  0  0  0
    8.6878   44.9909  129.1868 C   0  0  0  0  0  0  0  0  0  0  0  0
    9.7048   44.3826  128.4588 C   0  0  0  0  0  0  0  0  0  0  0  0
   10.8743   45.0856  128.3234 C   0  0  0  0  0  0  0  0  0  0  0  0
   11.0354   46.3336  128.8794 C   0  0  0  0  0  0  0  0  0  0  0  0
    9.4431   43.1380  127.9498 O   0  0  0  0  0  0  0  0  0  0  0  0
    9.5358   41.8843  128.5359 C   0  0  0  0  0  0  0  0  0  0  0  0
    8.6930   41.7580  129.7823 C   0  0  0  0  0  0  0  0  0  0  0  0
    9.4280   42.1778  130.9490 N   0  0  0  0  0  0  0  0  0  0  0  0
   10.6861   42.8078  130.6883 C   0  0  0  0  0  0  0  0  0  0  0  0
   11.5559   42.5994  131.9216 C   0  0  0  0  0  0  0  0  0  0  0  0
   10.6198   42.6841  133.1199 C   0  0  0  0  0  0  0  0  0  0  0  0
    9.5275   43.6933  132.8031 C   0  0  0  0  0  0  0  0  0  0  0  0
    8.6333   43.1487  131.7191 C   0  0  0  0  0  0  0  0  0  0  0  0
 13 14  1  0  0  0
 14 15  2  0  0  0
 15 16  1  0  0  0
 16 17  2  0  0  0
 17 18  1  0  0  0
 18 19  2  0  0  0
 17  1  1  0  0  0
  1  2  1  0  0  0
  2  3  1  0  0  0
  3  4  2  0  0  0
  4  5  1  0  0  0
  5  6  1  0  0  0
  5  7  2  0  0  0
  7  8  1  0  0  0
  8  9  2  0  0  0
  9 10  1  0  0  0
 10 11  1  0  0  0
 11 21  1  0  0  0
 21 22  2  0  0  0
 22 23  1  0  0  0
 23 24  2  0  0  0
 24 27  1  0  0  0
 27 28  1  0  0  0
 28 29  1  0  0  0
 29 30  1  0  0  0
 30 31  1  0  0  0
 31 32  1  0  0  0
 32 33  1  0  0  0
 33 34  1  0  0  0
 34 35  1  0  0  0
 24 25  1  0  0  0
 25 26  2  0  0  0
 19 14  1  0  0  0
 11  1  1  0  0  0
 26 21  1  0  0  0
  9  3  1  0  0  0
 35 30  1  0  0  0
 13 20  1  0  0  0
  6 12  1  0  0  0
M  END
> <minimizedAffinity>
9.04545

> <CNNscore>
0.3479612470

> <CNNaffinity>
7.5301971436

> <CNN_VS>
2.6202168465

> <CNNaffinity_variance>
0.8086439371

$$$$
[H]Oc1c([H])c([H])c([C@]2([H])Sc3c([H])c(O[H])c([H])c([H])c3O[C@]2([H])c2c([H])c([H])c(OC([H])([H])C([H])([H])N3C([H])([H])C([H])([H])C([H])([H])C([H])([H])C3([H])[H])c([H])c2[H])c([H])c1[H]


 35 39  0  0  0  0  0  0  0  0999 V2000
    8.4766   46.0290  128.5927 C   0  0  0  0  0  0  0  0  0  0  0  0
    9.2026   47.6142  129.2047 S   0  0  0  0  0  0  0  0  0  0  0  0
    7.7438   48.5772  129.4655 C   0  0  0  0  0  0  0  0  0  0  0  0
    7.8086   49.9278  129.5479 C   0  0  0  0  0  0  0  0  0  0  0  0
    6.6752   50.7182  129.7485 C   0  0  0  0  0  0  0  0  0  0  0  0
    6.7494   52.0990  129.8316 O   0  0  0  0  0  0  0  0  0  0  0  0
    5.4623   50.0844  129.8637 C   0  0  0  0  0  0  0  0  0  0  0  0
    5.3848   48.7208  129.7822 C   0  0  0  0  0  0  0  0  0  0  0  0
    6.5389   47.9442  129.5798 C   0  0  0  0  0  0  0  0  0  0  0  0
    6.3640   46.5865  129.5106 O   0  0  0  0  0  0  0  0  0  0  0  0
    7.4339   45.6412  129.5551 C   0  0  0  0  0  0  0  0  0  0  0  0
    6.6526   52.5885  128.9290 H   0  0  0  0  0  0  0  0  0  0  0  0
   12.2910   42.2281  126.8653 O   0  0  0  0  0  0  0  0  0  0  0  0
   11.3505   43.1876  127.2948 C   0  0  0  0  0  0  0  0  0  0  0  0
   10.0091   42.8764  127.3236 C   0  0  0  0  0  0  0  0  0  0  0  0
    9.0561   43.8081  127.7437 C   0  0  0  0  0  0  0  0  0  0  0  0
    9.4458   45.0744  128.1435 C   0  0  0  0  0  0  0  0  0  0  0  0
   10.7843   45.3474  128.1015 C   0  0  0  0  0  0  0  0  0  0  0  0
   11.7396   44.4397  127.6892 C   0  0  0  0  0  0  0  0  0  0  0  0
   12.6622   41.6326  127.6211 H   0  0  0  0  0  0  0  0  0  0  0  0
    7.8001   45.4878  130.9564 C   0  0  0  0  0  0  0  0  0  0  0  0
    8.8380   44.6998  131.3782 C   0  0  0  0  0  0  0  0  0  0  0  0
    9.1840   44.5564  132.7039 C   0  0  0  0  0  0  0  0  0  0  0  0
    8.4773   45.2237  133.6988 C   0  0  0  0  0  0  0  0  0  0  0  0
    7.4352   46.0163  133.2915 C   0  0  0  0  0  0  0  0  0  0  0  0
    7.1035   46.1474  131.9628 C   0  0  0  0  0  0  0  0  0  0  0  0
    8.8870   45.0229  134.9905 O   0  0  0  0  0  0  0  0  0  0  0  0
    9.7764   45.7389  135.7779 C   0  0  0  0  0  0  0  0  0  0  0  0
   10.9749   46.2334  135.0041 C   0  0  0  0  0  0  0  0  0  0  0  0
   10.6346   47.3799  134.1996 N   0  0  0  0  0  0  0  0  0  0  0  0
   10.6221   47.1564  132.7862 C   0  0  0  0  0  0  0  0  0  0  0  0
   10.8815   48.5005  132.1175 C   0  0  0  0  0  0  0  0  0  0  0  0
   10.1777   49.5437  132.9752 C   0  0  0  0  0  0  0  0  0  0  0  0
    8.9160   48.9187  133.5492 C   0  0  0  0  0  0  0  0  0  0  0  0
    9.2874   47.8573  134.5526 C   0  0  0  0  0  0  0  0  0  0  0  0
 13 14  1  0  0  0
 14 15  2  0  0  0
 15 16  1  0  0  0
 16 17  2  0  0  0
 17 18  1  0  0  0
 18 19  2  0  0  0
 17  1  1  0  0  0
  1  2  1  0  0  0
  2  3  1  0  0  0
  3  4  2  0  0  0
  4  5  1  0  0  0
  5  6  1  0  0  0
  5  7  2  0  0  0
  7  8  1  0  0  0
  8  9  2  0  0  0
  9 10  1  0  0  0
 10 11  1  0  0  0
 11 21  1  0  0  0
 21 22  2  0  0  0
 22 23  1  0  0  0
 23 24  2  0  0  0
 24 27  1  0  0  0
 27 28  1  0  0  0
 28 29  1  0  0  0
 29 30  1  0  0  0
 30 31  1  0  0  0
 31 32  1  0  0  0
 32 33  1  0  0  0
 33 34  1  0  0  0
 34 35  1  0  0  0
 24 25  1  0  0  0
 25 26  2  0  0  0
 19 14  1  0  0  0
 11  1  1  0  0  0
 26 21  1  0  0  0
  9  3  1  0  0  0
 35 30  1  0  0  0
 13 20  1  0  0  0
  6 12  1  0  0  0
M  END
> <minimizedAffinity>
7.21480

> <CNNscore>
0.2968450785

> <CNNaffinity>
7.2376480103

> <CNN_VS>
2.1484601498

> <CNNaffinity_variance>
0.2680308521

$$$$
[H]Oc1c([H])c([H])c([C@]2([H])Sc3c([H])c(O[H])c([H])c([H])c3O[C@]2([H])c2c([H])c([H])c(OC([H])([H])C([H])([H])N3C([H])([H])C([H])([H])C([H])([H])C([H])([H])C3([H])[H])c([H])c2[H])c([H])c1[H]


 35 39  0  0  0  0  0  0  0  0999 V2000
    9.2478   46.1677  132.9479 C   0  0  0  0  0  0  0  0  0  0  0  0
    9.9475   44.7780  133.9447 S   0  0  0  0  0  0  0  0  0  0  0  0
    8.8578   43.4594  133.5003 C   0  0  0  0  0  0  0  0  0  0  0  0
    8.7554   42.3522  134.2741 C   0  0  0  0  0  0  0  0  0  0  0  0
    7.9011   41.2951  133.9544 C   0  0  0  0  0  0  0  0  0  0  0  0
    7.8018   40.1658  134.7507 O   0  0  0  0  0  0  0  0  0  0  0  0
    7.1472   41.4015  132.8115 C   0  0  0  0  0  0  0  0  0  0  0  0
    7.2423   42.5151  132.0222 C   0  0  0  0  0  0  0  0  0  0  0  0
    8.1092   43.5680  132.3630 C   0  0  0  0  0  0  0  0  0  0  0  0
    8.1372   44.6431  131.5132 O   0  0  0  0  0  0  0  0  0  0  0  0
    9.1214   45.6768  131.5670 C   0  0  0  0  0  0  0  0  0  0  0  0
    7.0842   40.2240  135.4892 H   0  0  0  0  0  0  0  0  0  0  0  0
   11.6200   51.2013  133.9555 O   0  0  0  0  0  0  0  0  0  0  0  0
   11.0368   49.9395  133.7162 C   0  0  0  0  0  0  0  0  0  0  0  0
    9.9193   49.8346  132.9178 C   0  0  0  0  0  0  0  0  0  0  0  0
    9.3208   48.5974  132.6650 C   0  0  0  0  0  0  0  0  0  0  0  0
    9.8449   47.4417  133.2171 C   0  0  0  0  0  0  0  0  0  0  0  0
   10.9535   47.5844  134.0037 C   0  0  0  0  0  0  0  0  0  0  0  0
   11.5578   48.7982  134.2645 C   0  0  0  0  0  0  0  0  0  0  0  0
   12.3440   51.4687  133.2713 H   0  0  0  0  0  0  0  0  0  0  0  0
   10.3083   45.1613  130.8984 C   0  0  0  0  0  0  0  0  0  0  0  0
   11.5610   45.2123  131.4496 C   0  0  0  0  0  0  0  0  0  0  0  0
   12.6827   44.7233  130.8165 C   0  0  0  0  0  0  0  0  0  0  0  0
   12.5902   44.1399  129.5574 C   0  0  0  0  0  0  0  0  0  0  0  0
   11.3420   44.0820  128.9927 C   0  0  0  0  0  0  0  0  0  0  0  0
   10.2328   44.5759  129.6395 C   0  0  0  0  0  0  0  0  0  0  0  0
   13.7547   43.6822  128.9998 O   0  0  0  0  0  0  0  0  0  0  0  0
   15.0521   44.1638  129.0942 C   0  0  0  0  0  0  0  0  0  0  0  0
   15.9433   43.6641  127.9825 C   0  0  0  0  0  0  0  0  0  0  0  0
   15.1784   43.3784  126.7946 N   0  0  0  0  0  0  0  0  0  0  0  0
   15.0613   41.9924  126.4583 C   0  0  0  0  0  0  0  0  0  0  0  0
   14.8209   41.9145  124.9559 C   0  0  0  0  0  0  0  0  0  0  0  0
   13.9463   43.1105  124.6038 C   0  0  0  0  0  0  0  0  0  0  0  0
   13.0108   43.3792  125.7719 C   0  0  0  0  0  0  0  0  0  0  0  0
   13.8037   43.8815  126.9511 C   0  0  0  0  0  0  0  0  0  0  0  0
 13 14  1  0  0  0
 14 15  2  0  0  0
 15 16  1  0  0  0
 16 17  2  0  0  0
 17 18  1  0  0  0
 18 19  2  0  0  0
 17  1  1  0  0  0
  1  2  1  0  0  0
  2  3  1  0  0  0
  3  4  2  0  0  0
  4  5  1  0  0  0
  5  6  1  0  0  0
  5  7  2  0  0  0
  7  8  1  0  0  0
  8  9  2  0  0  0
  9 10  1  0  0  0
 10 11  1  0  0  0
 11 21  1  0  0  0
 21 22  2  0  0  0
 22 23  1  0  0  0
 23 24  2  0  0  0
 24 27  1  0  0  0
 27 28  1  0  0  0
 28 29  1  0  0  0
 29 30  1  0  0  0
 30 31  1  0  0  0
 31 32  1  0  0  0
 32 33  1  0  0  0
 33 34  1  0  0  0
 34 35  1  0  0  0
 24 25  1  0  0  0
 25 26  2  0  0  0
 19 14  1  0  0  0
 11  1  1  0  0  0
 26 21  1  0  0  0
  9  3  1  0  0  0
 35 30  1  0  0  0
 13 20  1  0  0  0
  6 12  1  0  0  0
M  END
> <minimizedAffinity>
42.25407

> <CNNscore>
0.2775655985

> <CNNaffinity>
6.8429670334

> <CNN_VS>
1.8993722200

> <CNNaffinity_variance>
1.3565438986

$$$$
[H]Oc1c([H])c([H])c([C@]2([H])Sc3c([H])c(O[H])c([H])c([H])c3O[C@]2([H])c2c([H])c([H])c(OC([H])([H])C([H])([H])N3C([H])([H])C([H])([H])C([H])([H])C([H])([H])C3([H])[H])c([H])c2[H])c([H])c1[H]


 35 39  0  0  0  0  0  0  0  0999 V2000
    9.9675   44.2824  132.4803 C   0  0  0  0  0  0  0  0  0  0  0  0
   11.4480   44.7193  131.4646 S   0  0  0  0  0  0  0  0  0  0  0  0
   10.9148   44.2200  129.8553 C   0  0  0  0  0  0  0  0  0  0  0  0
   11.8112   44.0003  128.8637 C   0  0  0  0  0  0  0  0  0  0  0  0
   11.4240   43.6006  127.5831 C   0  0  0  0  0  0  0  0  0  0  0  0
   12.3467   43.3779  126.5740 O   0  0  0  0  0  0  0  0  0  0  0  0
   10.0829   43.4300  127.3415 C   0  0  0  0  0  0  0  0  0  0  0  0
    9.1685   43.6489  128.3354 C   0  0  0  0  0  0  0  0  0  0  0  0
    9.5804   44.0510  129.6179 C   0  0  0  0  0  0  0  0  0  0  0  0
    8.5939   44.2457  130.5494 O   0  0  0  0  0  0  0  0  0  0  0  0
    8.8028   44.8820  131.8111 C   0  0  0  0  0  0  0  0  0  0  0  0
   12.7003   42.4105  126.5226 H   0  0  0  0  0  0  0  0  0  0  0  0
   10.6901   44.8458  138.0607 O   0  0  0  0  0  0  0  0  0  0  0  0
   10.5035   44.7198  136.6682 C   0  0  0  0  0  0  0  0  0  0  0  0
   11.1383   43.7139  135.9738 C   0  0  0  0  0  0  0  0  0  0  0  0
   10.9719   43.5668  134.5941 C   0  0  0  0  0  0  0  0  0  0  0  0
   10.1574   44.4378  133.8917 C   0  0  0  0  0  0  0  0  0  0  0  0
    9.5444   45.4231  134.6136 C   0  0  0  0  0  0  0  0  0  0  0  0
    9.6973   45.5836  135.9765 C   0  0  0  0  0  0  0  0  0  0  0  0
   10.0113   44.3152  138.6276 H   0  0  0  0  0  0  0  0  0  0  0  0
    8.8032   46.3171  131.5623 C   0  0  0  0  0  0  0  0  0  0  0  0
    8.1291   47.2142  132.3475 C   0  0  0  0  0  0  0  0  0  0  0  0
    8.1312   48.5716  132.1117 C   0  0  0  0  0  0  0  0  0  0  0  0
    8.8374   49.1052  131.0389 C   0  0  0  0  0  0  0  0  0  0  0  0
    9.5172   48.2188  130.2436 C   0  0  0  0  0  0  0  0  0  0  0  0
    9.5035   46.8661  130.4940 C   0  0  0  0  0  0  0  0  0  0  0  0
    8.7837   50.4644  130.8765 O   0  0  0  0  0  0  0  0  0  0  0  0
    7.7202   51.2945  130.5544 C   0  0  0  0  0  0  0  0  0  0  0  0
    7.0654   50.9242  129.2452 C   0  0  0  0  0  0  0  0  0  0  0  0
    6.6040   49.5588  129.2652 N   0  0  0  0  0  0  0  0  0  0  0  0
    5.1971   49.3832  129.0710 C   0  0  0  0  0  0  0  0  0  0  0  0
    4.8148   48.0641  129.7303 C   0  0  0  0  0  0  0  0  0  0  0  0
    5.9860   47.1188  129.4980 C   0  0  0  0  0  0  0  0  0  0  0  0
    6.5989   47.4403  128.1442 C   0  0  0  0  0  0  0  0  0  0  0  0
    7.2657   48.7908  128.1976 C   0  0  0  0  0  0  0  0  0  0  0  0
 13 14  1  0  0  0
 14 15  2  0  0  0
 15 16  1  0  0  0
 16 17  2  0  0  0
 17 18  1  0  0  0
 18 19  2  0  0  0
 17  1  1  0  0  0
  1  2  1  0  0  0
  2  3  1  0  0  0
  3  4  2  0  0  0
  4  5  1  0  0  0
  5  6  1  0  0  0
  5  7  2  0  0  0
  7  8  1  0  0  0
  8  9  2  0  0  0
  9 10  1  0  0  0
 10 11  1  0  0  0
 11 21  1  0  0  0
 21 22  2  0  0  0
 22 23  1  0  0  0
 23 24  2  0  0  0
 24 27  1  0  0  0
 27 28  1  0  0  0
 28 29  1  0  0  0
 29 30  1  0  0  0
 30 31  1  0  0  0
 31 32  1  0  0  0
 32 33  1  0  0  0
 33 34  1  0  0  0
 34 35  1  0  0  0
 24 25  1  0  0  0
 25 26  2  0  0  0
 19 14  1  0  0  0
 11  1  1  0  0  0
 26 21  1  0  0  0
  9  3  1  0  0  0
 35 30  1  0  0  0
 13 20  1  0  0  0
  6 12  1  0  0  0
M  END
> <minimizedAffinity>
6.17391

> <CNNscore>
0.2542950511

> <CNNaffinity>
7.4548940659

> <CNN_VS>
1.8957426548

> <CNNaffinity_variance>
0.4395507872

$$$$
[H]Oc1c([H])c([H])c([C@]2([H])Sc3c([H])c(O[H])c([H])c([H])c3O[C@]2([H])c2c([H])c([H])c(OC([H])([H])C([H])([H])N3C([H])([H])C([H])([H])C([H])([H])C([H])([H])C3([H])[H])c([H])c2[H])c([H])c1[H]


 35 39  0  0  0  0  0  0  0  0999 V2000
    8.8248   46.9984  128.8526 C   0  0  0  0  0  0  0  0  0  0  0  0
    8.2952   45.3125  129.3927 S   0  0  0  0  0  0  0  0  0  0  0  0
    9.4177   44.2961  128.4814 C   0  0  0  0  0  0  0  0  0  0  0  0
    9.1529   42.9843  128.2713 C   0  0  0  0  0  0  0  0  0  0  0  0
   10.0157   42.1550  127.5520 C   0  0  0  0  0  0  0  0  0  0  0  0
    9.7381   40.8142  127.3412 O   0  0  0  0  0  0  0  0  0  0  0  0
   11.1674   42.7084  127.0485 C   0  0  0  0  0  0  0  0  0  0  0  0
   11.4453   44.0321  127.2544 C   0  0  0  0  0  0  0  0  0  0  0  0
   10.5624   44.8492  127.9818 C   0  0  0  0  0  0  0  0  0  0  0  0
   10.9235   46.1623  128.1366 O   0  0  0  0  0  0  0  0  0  0  0  0
   10.2823   47.0647  129.0393 C   0  0  0  0  0  0  0  0  0  0  0  0
    9.1999   40.6177  126.4837 H   0  0  0  0  0  0  0  0  0  0  0  0
    5.5047   51.1617  130.7565 O   0  0  0  0  0  0  0  0  0  0  0  0
    6.3209   50.1181  130.2724 C   0  0  0  0  0  0  0  0  0  0  0  0
    7.6822   50.1524  130.4790 C   0  0  0  0  0  0  0  0  0  0  0  0
    8.5141   49.1325  130.0096 C   0  0  0  0  0  0  0  0  0  0  0  0
    7.9807   48.0569  129.3212 C   0  0  0  0  0  0  0  0  0  0  0  0
    6.6267   48.0568  129.1350 C   0  0  0  0  0  0  0  0  0  0  0  0
    5.7898   49.0556  129.5914 C   0  0  0  0  0  0  0  0  0  0  0  0
    5.1496   51.0113  131.7130 H   0  0  0  0  0  0  0  0  0  0  0  0
   10.8294   46.7944  130.3618 C   0  0  0  0  0  0  0  0  0  0  0  0
   11.5281   45.6563  130.6658 C   0  0  0  0  0  0  0  0  0  0  0  0
   12.0460   45.4023  131.9170 C   0  0  0  0  0  0  0  0  0  0  0  0
   11.8791   46.3146  132.9535 C   0  0  0  0  0  0  0  0  0  0  0  0
   11.1813   47.4589  132.6640 C   0  0  0  0  0  0  0  0  0  0  0  0
   10.6707   47.6956  131.4087 C   0  0  0  0  0  0  0  0  0  0  0  0
   12.4242   45.9817  134.1654 O   0  0  0  0  0  0  0  0  0  0  0  0
   12.4117   44.7830  134.8630 C   0  0  0  0  0  0  0  0  0  0  0  0
   11.0337   44.4048  135.3506 C   0  0  0  0  0  0  0  0  0  0  0  0
   10.0125   45.0924  134.6007 N   0  0  0  0  0  0  0  0  0  0  0  0
    9.0547   44.2499  133.9522 C   0  0  0  0  0  0  0  0  0  0  0  0
    8.5012   45.0303  132.7667 C   0  0  0  0  0  0  0  0  0  0  0  0
    8.4189   46.4829  133.2165 C   0  0  0  0  0  0  0  0  0  0  0  0
    8.0797   46.5062  134.6985 C   0  0  0  0  0  0  0  0  0  0  0  0
    9.2453   45.9764  135.4935 C   0  0  0  0  0  0  0  0  0  0  0  0
 13 14  1  0  0  0
 14 15  2  0  0  0
 15 16  1  0  0  0
 16 17  2  0  0  0
 17 18  1  0  0  0
 18 19  2  0  0  0
 17  1  1  0  0  0
  1  2  1  0  0  0
  2  3  1  0  0  0
  3  4  2  0  0  0
  4  5  1  0  0  0
  5  6  1  0  0  0
  5  7  2  0  0  0
  7  8  1  0  0  0
  8  9  2  0  0  0
  9 10  1  0  0  0
 10 11  1  0  0  0
 11 21  1  0  0  0
 21 22  2  0  0  0
 22 23  1  0  0  0
 23 24  2  0  0  0
 24 27  1  0  0  0
 27 28  1  0  0  0
 28 29  1  0  0  0
 29 30  1  0  0  0
 30 31  1  0  0  0
 31 32  1  0  0  0
 32 33  1  0  0  0
 33 34  1  0  0  0
 34 35  1  0  0  0
 24 25  1  0  0  0
 25 26  2  0  0  0
 19 14  1  0  0  0
 11  1  1  0  0  0
 26 21  1  0  0  0
  9  3  1  0  0  0
 35 30  1  0  0  0
 13 20  1  0  0  0
  6 12  1  0  0  0
M  END
> <minimizedAffinity>
5.79836

> <CNNscore>
0.2522675097

> <CNNaffinity>
7.5280408859

> <CNN_VS>
1.8990801573

> <CNNaffinity_variance>
0.2251020968

$$$$
[H]Oc1c([H])c([H])c([C@]2([H])Sc3c([H])c([H])c(O[H])c([H])c3O[C@]2([H])c2c([H])c([H])c(OC([H])([H])C([H])([H])N3C([H])([H])C([H])([H])C([H])([H])C([H])([H])C3([H])[H])c([H])c2[H])c([H])c1[H]


 35 39  0  0  0  0  0  0  0  0999 V2000
    7.7128   48.0633  132.4457 C   0  0  0  0  0  0  0  0  0  0  0  0
    9.1374   48.6001  133.4259 S   0  0  0  0  0  0  0  0  0  0  0  0
    9.4988   47.2559  134.5075 C   0  0  0  0  0  0  0  0  0  0  0  0
   10.2925   47.4436  135.5783 C   0  0  0  0  0  0  0  0  0  0  0  0
   10.6046   46.4307  136.4477 C   0  0  0  0  0  0  0  0  0  0  0  0
   10.0958   45.1765  136.2293 C   0  0  0  0  0  0  0  0  0  0  0  0
   10.3994   44.1156  137.1066 O   0  0  0  0  0  0  0  0  0  0  0  0
    9.2837   44.9720  135.1389 C   0  0  0  0  0  0  0  0  0  0  0  0
    8.9760   46.0207  134.2616 C   0  0  0  0  0  0  0  0  0  0  0  0
    8.1695   45.7718  133.1981 O   0  0  0  0  0  0  0  0  0  0  0  0
    7.7260   46.5823  132.1839 C   0  0  0  0  0  0  0  0  0  0  0  0
   11.2378   43.5904  136.8468 H   0  0  0  0  0  0  0  0  0  0  0  0
    7.2708   51.1792  127.6823 O   0  0  0  0  0  0  0  0  0  0  0  0
    7.3778   50.4225  128.8500 C   0  0  0  0  0  0  0  0  0  0  0  0
    8.1470   50.8156  129.9219 C   0  0  0  0  0  0  0  0  0  0  0  0
    8.2369   50.0535  131.0604 C   0  0  0  0  0  0  0  0  0  0  0  0
    7.5634   48.8448  131.2026 C   0  0  0  0  0  0  0  0  0  0  0  0
    6.7968   48.4559  130.1306 C   0  0  0  0  0  0  0  0  0  0  0  0
    6.6981   49.2291  128.9603 C   0  0  0  0  0  0  0  0  0  0  0  0
    7.7706   52.0628  127.5924 H   0  0  0  0  0  0  0  0  0  0  0  0
    8.4099   46.1854  130.9288 C   0  0  0  0  0  0  0  0  0  0  0  0
    7.9929   45.0823  130.1971 C   0  0  0  0  0  0  0  0  0  0  0  0
    8.6246   44.7065  129.0304 C   0  0  0  0  0  0  0  0  0  0  0  0
    9.7094   45.4110  128.5259 C   0  0  0  0  0  0  0  0  0  0  0  0
   10.1226   46.5090  129.2521 C   0  0  0  0  0  0  0  0  0  0  0  0
    9.4838   46.8642  130.4070 C   0  0  0  0  0  0  0  0  0  0  0  0
   10.3505   45.0429  127.3623 O   0  0  0  0  0  0  0  0  0  0  0  0
   11.2295   43.9697  127.2741 C   0  0  0  0  0  0  0  0  0  0  0  0
   12.3357   44.0357  128.2897 C   0  0  0  0  0  0  0  0  0  0  0  0
   11.8352   44.2037  129.6628 N   0  0  0  0  0  0  0  0  0  0  0  0
   12.9119   44.4938  130.5645 C   0  0  0  0  0  0  0  0  0  0  0  0
   12.3820   44.9487  131.8933 C   0  0  0  0  0  0  0  0  0  0  0  0
   11.2187   44.0979  132.2870 C   0  0  0  0  0  0  0  0  0  0  0  0
   11.3451   42.7819  131.5560 C   0  0  0  0  0  0  0  0  0  0  0  0
   11.1331   43.0232  130.0883 C   0  0  0  0  0  0  0  0  0  0  0  0
 13 14  1  0  0  0
 14 15  2  0  0  0
 15 16  1  0  0  0
 16 17  2  0  0  0
 17 18  1  0  0  0
 18 19  2  0  0  0
 17  1  1  0  0  0
  1  2  1  0  0  0
  2  3  1  0  0  0
  3  4  2  0  0  0
  4  5  1  0  0  0
  5  6  2  0  0  0
  6  7  1  0  0  0
  6  8  1  0  0  0
  8  9  2  0  0  0
  9 10  1  0  0  0
 10 11  1  0  0  0
 11 21  1  0  0  0
 21 22  2  0  0  0
 22 23  1  0  0  0
 23 24  2  0  0  0
 24 27  1  0  0  0
 27 28  1  0  0  0
 28 29  1  0  0  0
 29 30  1  0  0  0
 30 31  1  0  0  0
 31 32  1  0  0  0
 32 33  1  0  0  0
 33 34  1  0  0  0
 34 35  1  0  0  0
 24 25  1  0  0  0
 25 26  2  0  0  0
 19 14  1  0  0  0
 11  1  1  0  0  0
 26 21  1  0  0  0
  9  3  1  0  0  0
 35 30  1  0  0  0
 13 20  1  0  0  0
  7 12  1  0  0  0
M  END
> <minimizedAffinity>
6.53045

> <CNNscore>
0.4048276842

> <CNNaffinity>
7.6987295151

> <CNN_VS>
3.1166589260

> <CNNaffinity_variance>
0.8969234228

$$$$
[H]Oc1c([H])c([H])c([C@]2([H])Sc3c([H])c([H])c(O[H])c([H])c3O[C@]2([H])c2c([H])c([H])c(OC([H])([H])C([H])([H])N3C([H])([H])C([H])([H])C([H])([H])C([H])([H])C3([H])[H])c([H])c2[H])c([H])c1[H]


 35 39  0  0  0  0  0  0  0  0999 V2000
   10.4620   44.8836  132.3228 C   0  0  0  0  0  0  0  0  0  0  0  0
   12.2700   44.9456  132.3966 S   0  0  0  0  0  0  0  0  0  0  0  0
   12.8216   44.5663  130.7659 C   0  0  0  0  0  0  0  0  0  0  0  0
   14.1040   44.2195  130.5488 C   0  0  0  0  0  0  0  0  0  0  0  0
   14.5817   43.9173  129.3000 C   0  0  0  0  0  0  0  0  0  0  0  0
   13.7323   43.9665  128.2251 C   0  0  0  0  0  0  0  0  0  0  0  0
   14.1954   43.6606  126.9292 O   0  0  0  0  0  0  0  0  0  0  0  0
   12.4200   44.3194  128.4337 C   0  0  0  0  0  0  0  0  0  0  0  0
   11.9503   44.6246  129.7185 C   0  0  0  0  0  0  0  0  0  0  0  0
   10.6463   44.9678  129.8765 O   0  0  0  0  0  0  0  0  0  0  0  0
    9.9298   45.3303  130.9890 C   0  0  0  0  0  0  0  0  0  0  0  0
   14.5525   44.4698  126.4154 H   0  0  0  0  0  0  0  0  0  0  0  0
    8.1405   47.8165  136.6359 O   0  0  0  0  0  0  0  0  0  0  0  0
    8.7131   47.0991  135.5848 C   0  0  0  0  0  0  0  0  0  0  0  0
    9.9659   47.3810  135.0887 C   0  0  0  0  0  0  0  0  0  0  0  0
   10.5080   46.6609  134.0531 C   0  0  0  0  0  0  0  0  0  0  0  0
    9.8318   45.6098  133.4426 C   0  0  0  0  0  0  0  0  0  0  0  0
    8.5817   45.3315  133.9405 C   0  0  0  0  0  0  0  0  0  0  0  0
    8.0176   46.0629  135.0007 C   0  0  0  0  0  0  0  0  0  0  0  0
    8.6479   48.5846  137.0732 H   0  0  0  0  0  0  0  0  0  0  0  0
    9.6243   46.7793  130.9023 C   0  0  0  0  0  0  0  0  0  0  0  0
    8.5886   47.3438  131.6337 C   0  0  0  0  0  0  0  0  0  0  0  0
    8.2979   48.6895  131.5573 C   0  0  0  0  0  0  0  0  0  0  0  0
    9.0251   49.5504  130.7464 C   0  0  0  0  0  0  0  0  0  0  0  0
   10.0562   48.9898  130.0209 C   0  0  0  0  0  0  0  0  0  0  0  0
   10.3274   47.6531  130.1096 C   0  0  0  0  0  0  0  0  0  0  0  0
    8.7417   50.8967  130.6597 O   0  0  0  0  0  0  0  0  0  0  0  0
    7.5346   51.4006  130.1891 C   0  0  0  0  0  0  0  0  0  0  0  0
    7.0091   50.6437  129.0014 C   0  0  0  0  0  0  0  0  0  0  0  0
    6.6448   49.2566  129.3292 N   0  0  0  0  0  0  0  0  0  0  0  0
    7.0251   48.3674  128.2705 C   0  0  0  0  0  0  0  0  0  0  0  0
    6.9238   46.9378  128.7174 C   0  0  0  0  0  0  0  0  0  0  0  0
    5.6705   46.7474  129.5080 C   0  0  0  0  0  0  0  0  0  0  0  0
    4.7030   47.8343  129.1021 C   0  0  0  0  0  0  0  0  0  0  0  0
    5.2329   49.1557  129.5820 C   0  0  0  0  0  0  0  0  0  0  0  0
 13 14  1  0  0  0
 14 15  2  0  0  0
 15 16  1  0  0  0
 16 17  2  0  0  0
 17 18  1  0  0  0
 18 19  2  0  0  0
 17  1  1  0  0  0
  1  2  1  0  0  0
  2  3  1  0  0  0
  3  4  2  0  0  0
  4  5  1  0  0  0
  5  6  2  0  0  0
  6  7  1  0  0  0
  6  8  1  0  0  0
  8  9  2  0  0  0
  9 10  1  0  0  0
 10 11  1  0  0  0
 11 21  1  0  0  0
 21 22  2  0  0  0
 22 23  1  0  0  0
 23 24  2  0  0  0
 24 27  1  0  0  0
 27 28  1  0  0  0
 28 29  1  0  0  0
 29 30  1  0  0  0
 30 31  1  0  0  0
 31 32  1  0  0  0
 32 33  1  0  0  0
 33 34  1  0  0  0
 34 35  1  0  0  0
 24 25  1  0  0  0
 25 26  2  0  0  0
 19 14  1  0  0  0
 11  1  1  0  0  0
 26 21  1  0  0  0
  9  3  1  0  0  0
 35 30  1  0  0  0
 13 20  1  0  0  0
  7 12  1  0  0  0
M  END
> <minimizedAffinity>
8.01417

> <CNNscore>
0.4001621008

> <CNNaffinity>
7.4719228745

> <CNN_VS>
2.9899804592

> <CNNaffinity_variance>
0.6961585283

$$$$
[H]Oc1c([H])c([H])c([C@]2([H])Sc3c([H])c([H])c(O[H])c([H])c3O[C@]2([H])c2c([H])c([H])c(OC([H])([H])C([H])([H])N3C([H])([H])C([H])([H])C([H])([H])C([H])([H])C3([H])[H])c([H])c2[H])c([H])c1[H]


 35 39  0  0  0  0  0  0  0  0999 V2000
    9.3667   46.3231  129.1556 C   0  0  0  0  0  0  0  0  0  0  0  0
    8.3177   44.8580  129.3329 S   0  0  0  0  0  0  0  0  0  0  0  0
    9.3462   43.6276  130.0647 C   0  0  0  0  0  0  0  0  0  0  0  0
    8.9745   42.3340  130.0423 C   0  0  0  0  0  0  0  0  0  0  0  0
    9.7380   41.3408  130.5986 C   0  0  0  0  0  0  0  0  0  0  0  0
   10.9255   41.6640  131.2027 C   0  0  0  0  0  0  0  0  0  0  0  0
   11.7316   40.6636  131.7831 O   0  0  0  0  0  0  0  0  0  0  0  0
   11.3163   42.9818  131.2322 C   0  0  0  0  0  0  0  0  0  0  0  0
   10.5217   43.9831  130.6574 C   0  0  0  0  0  0  0  0  0  0  0  0
   10.9482   45.2709  130.7104 O   0  0  0  0  0  0  0  0  0  0  0  0
   10.3802   46.4362  130.2611 C   0  0  0  0  0  0  0  0  0  0  0  0
   11.5228   40.4833  132.7681 H   0  0  0  0  0  0  0  0  0  0  0  0
    6.4539   51.1988  128.5748 O   0  0  0  0  0  0  0  0  0  0  0  0
    7.1672   50.0084  128.7225 C   0  0  0  0  0  0  0  0  0  0  0  0
    8.4301   49.9622  129.2684 C   0  0  0  0  0  0  0  0  0  0  0  0
    9.1125   48.7785  129.4030 C   0  0  0  0  0  0  0  0  0  0  0  0
    8.5770   47.5600  128.9987 C   0  0  0  0  0  0  0  0  0  0  0  0
    7.3163   47.6103  128.4544 C   0  0  0  0  0  0  0  0  0  0  0  0
    6.6092   48.8173  128.3122 C   0  0  0  0  0  0  0  0  0  0  0  0
    6.8596   52.0841  128.8752 H   0  0  0  0  0  0  0  0  0  0  0  0
    9.9263   47.2230  131.4337 C   0  0  0  0  0  0  0  0  0  0  0  0
   10.8310   47.8778  132.2578 C   0  0  0  0  0  0  0  0  0  0  0  0
   10.4167   48.6099  133.3504 C   0  0  0  0  0  0  0  0  0  0  0  0
    9.0743   48.7314  133.6835 C   0  0  0  0  0  0  0  0  0  0  0  0
    8.1747   48.0824  132.8631 C   0  0  0  0  0  0  0  0  0  0  0  0
    8.6058   47.3605  131.7855 C   0  0  0  0  0  0  0  0  0  0  0  0
    8.6487   49.4581  134.7749 O   0  0  0  0  0  0  0  0  0  0  0  0
    7.8786   48.9248  135.8020 C   0  0  0  0  0  0  0  0  0  0  0  0
    8.4534   47.6548  136.3641 C   0  0  0  0  0  0  0  0  0  0  0  0
    8.9128   46.7286  135.3175 N   0  0  0  0  0  0  0  0  0  0  0  0
    7.9536   45.6838  135.1065 C   0  0  0  0  0  0  0  0  0  0  0  0
    8.2739   44.9151  133.8574 C   0  0  0  0  0  0  0  0  0  0  0  0
    9.7463   44.6741  133.7808 C   0  0  0  0  0  0  0  0  0  0  0  0
   10.2970   44.7508  135.1854 C   0  0  0  0  0  0  0  0  0  0  0  0
   10.1901   46.1694  135.6686 C   0  0  0  0  0  0  0  0  0  0  0  0
 13 14  1  0  0  0
 14 15  2  0  0  0
 15 16  1  0  0  0
 16 17  2  0  0  0
 17 18  1  0  0  0
 18 19  2  0  0  0
 17  1  1  0  0  0
  1  2  1  0  0  0
  2  3  1  0  0  0
  3  4  2  0  0  0
  4  5  1  0  0  0
  5  6  2  0  0  0
  6  7  1  0  0  0
  6  8  1  0  0  0
  8  9  2  0  0  0
  9 10  1  0  0  0
 10 11  1  0  0  0
 11 21  1  0  0  0
 21 22  2  0  0  0
 22 23  1  0  0  0
 23 24  2  0  0  0
 24 27  1  0  0  0
 27 28  1  0  0  0
 28 29  1  0  0  0
 29 30  1  0  0  0
 30 31  1  0  0  0
 31 32  1  0  0  0
 32 33  1  0  0  0
 33 34  1  0  0  0
 34 35  1  0  0  0
 24 25  1  0  0  0
 25 26  2  0  0  0
 19 14  1  0  0  0
 11  1  1  0  0  0
 26 21  1  0  0  0
  9  3  1  0  0  0
 35 30  1  0  0  0
 13 20  1  0  0  0
  7 12  1  0  0  0
M  END
> <minimizedAffinity>
7.07814

> <CNNscore>
0.3342386484

> <CNNaffinity>
7.5047721863

> <CNN_VS>
2.5083849430

> <CNNaffinity_variance>
0.2141291648

$$$$
[H]Oc1c([H])c([H])c([C@]2([H])Sc3c([H])c([H])c(O[H])c([H])c3O[C@]2([H])c2c([H])c([H])c(OC([H])([H])C([H])([H])N3C([H])([H])C([H])([H])C([H])([H])C([H])([H])C3([H])[H])c([H])c2[H])c([H])c1[H]


 35 39  0  0  0  0  0  0  0  0999 V2000
   10.9799   44.8383  131.5642 C   0  0  0  0  0  0  0  0  0  0  0  0
   10.3107   43.9276  132.9789 S   0  0  0  0  0  0  0  0  0  0  0  0
   10.1725   45.1107  134.2783 C   0  0  0  0  0  0  0  0  0  0  0  0
   10.0086   44.7025  135.5505 C   0  0  0  0  0  0  0  0  0  0  0  0
    9.8944   45.5826  136.5952 C   0  0  0  0  0  0  0  0  0  0  0  0
    9.9476   46.9301  136.3482 C   0  0  0  0  0  0  0  0  0  0  0  0
    9.8333   47.8586  137.4028 O   0  0  0  0  0  0  0  0  0  0  0  0
   10.1147   47.3597  135.0529 C   0  0  0  0  0  0  0  0  0  0  0  0
   10.2299   46.4441  133.9981 C   0  0  0  0  0  0  0  0  0  0  0  0
   10.3939   46.9146  132.7352 O   0  0  0  0  0  0  0  0  0  0  0  0
   10.5103   46.2667  131.5314 C   0  0  0  0  0  0  0  0  0  0  0  0
    8.8715   48.1468  137.5983 H   0  0  0  0  0  0  0  0  0  0  0  0
    9.8836   42.0848  126.6845 O   0  0  0  0  0  0  0  0  0  0  0  0
   10.1521   42.7526  127.8802 C   0  0  0  0  0  0  0  0  0  0  0  0
    9.5287   42.4334  129.0654 C   0  0  0  0  0  0  0  0  0  0  0  0
    9.8094   43.1054  130.2293 C   0  0  0  0  0  0  0  0  0  0  0  0
   10.7330   44.1440  130.2854 C   0  0  0  0  0  0  0  0  0  0  0  0
   11.3531   44.4595  129.1004 C   0  0  0  0  0  0  0  0  0  0  0  0
   11.0727   43.7775  127.9032 C   0  0  0  0  0  0  0  0  0  0  0  0
    9.2038   41.3259  126.6588 H   0  0  0  0  0  0  0  0  0  0  0  0
    9.2665   46.4878  130.7540 C   0  0  0  0  0  0  0  0  0  0  0  0
    9.2910   47.1134  129.5152 C   0  0  0  0  0  0  0  0  0  0  0  0
    8.1388   47.3236  128.7874 C   0  0  0  0  0  0  0  0  0  0  0  0
    6.8948   46.9206  129.2540 C   0  0  0  0  0  0  0  0  0  0  0  0
    6.8706   46.2967  130.4844 C   0  0  0  0  0  0  0  0  0  0  0  0
    8.0238   46.0990  131.1908 C   0  0  0  0  0  0  0  0  0  0  0  0
    5.7360   47.1281  128.5366 O   0  0  0  0  0  0  0  0  0  0  0  0
    4.6758   47.9023  128.9937 C   0  0  0  0  0  0  0  0  0  0  0  0
    5.0383   49.3520  129.1555 C   0  0  0  0  0  0  0  0  0  0  0  0
    6.4090   49.5412  129.6552 N   0  0  0  0  0  0  0  0  0  0  0  0
    6.4047   49.7997  131.0657 C   0  0  0  0  0  0  0  0  0  0  0  0
    7.7942   49.7040  131.6259 C   0  0  0  0  0  0  0  0  0  0  0  0
    8.7565   50.3679  130.6958 C   0  0  0  0  0  0  0  0  0  0  0  0
    7.9804   51.3661  129.8691 C   0  0  0  0  0  0  0  0  0  0  0  0
    7.0543   50.6173  128.9531 C   0  0  0  0  0  0  0  0  0  0  0  0
 13 14  1  0  0  0
 14 15  2  0  0  0
 15 16  1  0  0  0
 16 17  2  0  0  0
 17 18  1  0  0  0
 18 19  2  0  0  0
 17  1  1  0  0  0
  1  2  1  0  0  0
  2  3  1  0  0  0
  3  4  2  0  0  0
  4  5  1  0  0  0
  5  6  2  0  0  0
  6  7  1  0  0  0
  6  8  1  0  0  0
  8  9  2  0  0  0
  9 10  1  0  0  0
 10 11  1  0  0  0
 11 21  1  0  0  0
 21 22  2  0  0  0
 22 23  1  0  0  0
 23 24  2  0  0  0
 24 27  1  0  0  0
 27 28  1  0  0  0
 28 29  1  0  0  0
 29 30  1  0  0  0
 30 31  1  0  0  0
 31 32  1  0  0  0
 32 33  1  0  0  0
 33 34  1  0  0  0
 34 35  1  0  0  0
 24 25  1  0  0  0
 25 26  2  0  0  0
 19 14  1  0  0  0
 11  1  1  0  0  0
 26 21  1  0  0  0
  9  3  1  0  0  0
 35 30  1  0  0  0
 13 20  1  0  0  0
  7 12  1  0  0  0
M  END
> <minimizedAffinity>
5.45069

> <CNNscore>
0.3342219889

> <CNNaffinity>
7.6723670959

> <CNN_VS>
2.5642738342

> <CNNaffinity_variance>
0.7266272306

$$$$
[H]Oc1c([H])c([H])c([C@]2([H])Sc3c([H])c([H])c(O[H])c([H])c3O[C@]2([H])c2c([H])c([H])c(OC([H])([H])C([H])([H])N3C([H])([H])C([H])([H])C([H])([H])C([H])([H])C3([H])[H])c([H])c2[H])c([H])c1[H]


 35 39  0  0  0  0  0  0  0  0999 V2000
    7.9904   45.6092  129.2935 C   0  0  0  0  0  0  0  0  0  0  0  0
    7.6039   44.4867  130.6606 S   0  0  0  0  0  0  0  0  0  0  0  0
    9.1331   43.7211  131.0884 C   0  0  0  0  0  0  0  0  0  0  0  0
    9.1443   42.6094  131.8474 C   0  0  0  0  0  0  0  0  0  0  0  0
   10.3063   41.9783  132.2083 C   0  0  0  0  0  0  0  0  0  0  0  0
   11.5072   42.4882  131.7872 C   0  0  0  0  0  0  0  0  0  0  0  0
   12.7183   41.8603  132.1427 O   0  0  0  0  0  0  0  0  0  0  0  0
   11.5092   43.6233  131.0114 C   0  0  0  0  0  0  0  0  0  0  0  0
   10.3102   44.2541  130.6526 C   0  0  0  0  0  0  0  0  0  0  0  0
   10.3610   45.3727  129.8849 O   0  0  0  0  0  0  0  0  0  0  0  0
    9.3709   46.1946  129.4088 C   0  0  0  0  0  0  0  0  0  0  0  0
   13.1207   42.2025  133.0186 H   0  0  0  0  0  0  0  0  0  0  0  0
    3.9227   49.5783  128.7502 O   0  0  0  0  0  0  0  0  0  0  0  0
    4.9129   48.6037  128.8821 C   0  0  0  0  0  0  0  0  0  0  0  0
    4.7644   47.4986  129.6895 C   0  0  0  0  0  0  0  0  0  0  0  0
    5.7535   46.5532  129.8034 C   0  0  0  0  0  0  0  0  0  0  0  0
    6.9595   46.6506  129.1173 C   0  0  0  0  0  0  0  0  0  0  0  0
    7.1039   47.7550  128.3125 C   0  0  0  0  0  0  0  0  0  0  0  0
    6.0971   48.7289  128.1890 C   0  0  0  0  0  0  0  0  0  0  0  0
    3.0441   49.4936  129.2597 H   0  0  0  0  0  0  0  0  0  0  0  0
    9.4338   47.4829  130.1414 C   0  0  0  0  0  0  0  0  0  0  0  0
   10.5392   48.3163  130.0428 C   0  0  0  0  0  0  0  0  0  0  0  0
   10.6054   49.5146  130.7219 C   0  0  0  0  0  0  0  0  0  0  0  0
    9.5709   49.9509  131.5387 C   0  0  0  0  0  0  0  0  0  0  0  0
    8.4710   49.1235  131.6350 C   0  0  0  0  0  0  0  0  0  0  0  0
    8.4254   47.9389  130.9548 C   0  0  0  0  0  0  0  0  0  0  0  0
    9.6272   51.1454  132.2247 O   0  0  0  0  0  0  0  0  0  0  0  0
    9.8301   51.2362  133.5969 C   0  0  0  0  0  0  0  0  0  0  0  0
   10.6726   50.1153  134.1383 C   0  0  0  0  0  0  0  0  0  0  0  0
   10.1042   48.7892  133.8511 N   0  0  0  0  0  0  0  0  0  0  0  0
    9.2819   48.3424  134.9376 C   0  0  0  0  0  0  0  0  0  0  0  0
    8.4771   47.1413  134.5335 C   0  0  0  0  0  0  0  0  0  0  0  0
    9.3340   46.2060  133.7443 C   0  0  0  0  0  0  0  0  0  0  0  0
   10.7729   46.4807  134.1135 C   0  0  0  0  0  0  0  0  0  0  0  0
   11.1528   47.8390  133.5960 C   0  0  0  0  0  0  0  0  0  0  0  0
 13 14  1  0  0  0
 14 15  2  0  0  0
 15 16  1  0  0  0
 16 17  2  0  0  0
 17 18  1  0  0  0
 18 19  2  0  0  0
 17  1  1  0  0  0
  1  2  1  0  0  0
  2  3  1  0  0  0
  3  4  2  0  0  0
  4  5  1  0  0  0
  5  6  2  0  0  0
  6  7  1  0  0  0
  6  8  1  0  0  0
  8  9  2  0  0  0
  9 10  1  0  0  0
 10 11  1  0  0  0
 11 21  1  0  0  0
 21 22  2  0  0  0
 22 23  1  0  0  0
 23 24  2  0  0  0
 24 27  1  0  0  0
 27 28  1  0  0  0
 28 29  1  0  0  0
 29 30  1  0  0  0
 30 31  1  0  0  0
 31 32  1  0  0  0
 32 33  1  0  0  0
 33 34  1  0  0  0
 34 35  1  0  0  0
 24 25  1  0  0  0
 25 26  2  0  0  0
 19 14  1  0  0  0
 11  1  1  0  0  0
 26 21  1  0  0  0
  9  3  1  0  0  0
 35 30  1  0  0  0
 13 20  1  0  0  0
  7 12  1  0  0  0
M  END
> <minimizedAffinity>
5.63528

> <CNNscore>
0.3209681511

> <CNNaffinity>
7.4000563622

> <CNN_VS>
2.3751823902

> <CNNaffinity_variance>
0.1290405393

$$$$
[H]Oc1c([H])c([H])c([C@]2([H])Sc3c([H])c([H])c(O[H])c([H])c3O[C@]2([H])c2c([H])c([H])c(OC([H])([H])C([H])([H])N3C([H])([H])C([H])([H])C([H])([H])C([H])([H])C3([H])[H])c([H])c2[H])c([H])c1[H]


 35 39  0  0  0  0  0  0  0  0999 V2000
    8.3802   46.2139  133.1237 C   0  0  0  0  0  0  0  0  0  0  0  0
    7.9325   47.5024  131.9330 S   0  0  0  0  0  0  0  0  0  0  0  0
    8.7671   48.9568  132.4765 C   0  0  0  0  0  0  0  0  0  0  0  0
    8.4027   50.1630  132.0031 C   0  0  0  0  0  0  0  0  0  0  0  0
    9.0212   51.3226  132.3930 C   0  0  0  0  0  0  0  0  0  0  0  0
   10.0497   51.2646  133.2976 C   0  0  0  0  0  0  0  0  0  0  0  0
   10.7041   52.4406  133.7171 O   0  0  0  0  0  0  0  0  0  0  0  0
   10.4314   50.0385  133.7887 C   0  0  0  0  0  0  0  0  0  0  0  0
    9.7863   48.8640  133.3778 C   0  0  0  0  0  0  0  0  0  0  0  0
   10.1973   47.6757  133.8899 O   0  0  0  0  0  0  0  0  0  0  0  0
    9.7746   46.3910  133.6587 C   0  0  0  0  0  0  0  0  0  0  0  0
   11.5082   52.6959  133.1387 H   0  0  0  0  0  0  0  0  0  0  0  0
    7.5171   40.9055  131.2078 O   0  0  0  0  0  0  0  0  0  0  0  0
    7.7331   42.2012  131.6789 C   0  0  0  0  0  0  0  0  0  0  0  0
    8.0585   42.4706  132.9891 C   0  0  0  0  0  0  0  0  0  0  0  0
    8.2660   43.7545  133.4292 C   0  0  0  0  0  0  0  0  0  0  0  0
    8.1605   44.8566  132.5871 C   0  0  0  0  0  0  0  0  0  0  0  0
    7.8357   44.5836  131.2802 C   0  0  0  0  0  0  0  0  0  0  0  0
    7.6212   43.2725  130.8196 C   0  0  0  0  0  0  0  0  0  0  0  0
    7.5975   40.1077  131.8369 H   0  0  0  0  0  0  0  0  0  0  0  0
   10.8241   45.6800  132.8885 C   0  0  0  0  0  0  0  0  0  0  0  0
   11.2013   44.3833  133.2089 C   0  0  0  0  0  0  0  0  0  0  0  0
   12.1770   43.7166  132.4984 C   0  0  0  0  0  0  0  0  0  0  0  0
   12.8326   44.3057  131.4257 C   0  0  0  0  0  0  0  0  0  0  0  0
   12.4562   45.5940  131.1057 C   0  0  0  0  0  0  0  0  0  0  0  0
   11.4877   46.2382  131.8233 C   0  0  0  0  0  0  0  0  0  0  0  0
   13.8115   43.6500  130.7101 O   0  0  0  0  0  0  0  0  0  0  0  0
   14.3469   44.1294  129.5202 C   0  0  0  0  0  0  0  0  0  0  0  0
   13.3959   44.0108  128.3622 C   0  0  0  0  0  0  0  0  0  0  0  0
   12.0387   44.4716  128.6938 N   0  0  0  0  0  0  0  0  0  0  0  0
   11.0956   43.3972  128.5820 C   0  0  0  0  0  0  0  0  0  0  0  0
    9.7793   43.7822  129.1925 C   0  0  0  0  0  0  0  0  0  0  0  0
    9.4397   45.1854  128.8080 C   0  0  0  0  0  0  0  0  0  0  0  0
   10.1860   45.5049  127.5340 C   0  0  0  0  0  0  0  0  0  0  0  0
   11.6564   45.5616  127.8376 C   0  0  0  0  0  0  0  0  0  0  0  0
 13 14  1  0  0  0
 14 15  2  0  0  0
 15 16  1  0  0  0
 16 17  2  0  0  0
 17 18  1  0  0  0
 18 19  2  0  0  0
 17  1  1  0  0  0
  1  2  1  0  0  0
  2  3  1  0  0  0
  3  4  2  0  0  0
  4  5  1  0  0  0
  5  6  2  0  0  0
  6  7  1  0  0  0
  6  8  1  0  0  0
  8  9  2  0  0  0
  9 10  1  0  0  0
 10 11  1  0  0  0
 11 21  1  0  0  0
 21 22  2  0  0  0
 22 23  1  0  0  0
 23 24  2  0  0  0
 24 27  1  0  0  0
 27 28  1  0  0  0
 28 29  1  0  0  0
 29 30  1  0  0  0
 30 31  1  0  0  0
 31 32  1  0  0  0
 32 33  1  0  0  0
 33 34  1  0  0  0
 34 35  1  0  0  0
 24 25  1  0  0  0
 25 26  2  0  0  0
 19 14  1  0  0  0
 11  1  1  0  0  0
 26 21  1  0  0  0
  9  3  1  0  0  0
 35 30  1  0  0  0
 13 20  1  0  0  0
  7 12  1  0  0  0
M  END
> <minimizedAffinity>
13.54043

> <CNNscore>
0.3054791987

> <CNNaffinity>
7.3405981064

> <CNN_VS>
2.2423999310

> <CNNaffinity_variance>
0.6463489532

$$$$
[H]Oc1c([H])c([H])c([C@]2([H])Sc3c([H])c([H])c(O[H])c([H])c3O[C@]2([H])c2c([H])c([H])c(OC([H])([H])C([H])([H])N3C([H])([H])C([H])([H])C([H])([H])C([H])([H])C3([H])[H])c([H])c2[H])c([H])c1[H]


 35 39  0  0  0  0  0  0  0  0999 V2000
   10.9860   43.2640  130.4947 C   0  0  0  0  0  0  0  0  0  0  0  0
    9.7348   42.6411  131.6457 S   0  0  0  0  0  0  0  0  0  0  0  0
   10.3966   42.9172  133.2560 C   0  0  0  0  0  0  0  0  0  0  0  0
    9.8671   42.2888  134.3221 C   0  0  0  0  0  0  0  0  0  0  0  0
   10.3445   42.4713  135.5941 C   0  0  0  0  0  0  0  0  0  0  0  0
   11.3994   43.3222  135.8006 C   0  0  0  0  0  0  0  0  0  0  0  0
   11.9117   43.5293  137.0976 O   0  0  0  0  0  0  0  0  0  0  0  0
   11.9491   43.9701  134.7198 C   0  0  0  0  0  0  0  0  0  0  0  0
   11.4469   43.7701  133.4267 C   0  0  0  0  0  0  0  0  0  0  0  0
   12.0217   44.4313  132.3895 O   0  0  0  0  0  0  0  0  0  0  0  0
   11.7323   44.4465  131.0485 C   0  0  0  0  0  0  0  0  0  0  0  0
   11.4653   44.2998  137.6009 H   0  0  0  0  0  0  0  0  0  0  0  0
    8.9821   44.3250  125.2551 O   0  0  0  0  0  0  0  0  0  0  0  0
    9.4749   44.0709  126.5358 C   0  0  0  0  0  0  0  0  0  0  0  0
   10.8021   44.2288  126.8658 C   0  0  0  0  0  0  0  0  0  0  0  0
   11.2634   43.9720  128.1332 C   0  0  0  0  0  0  0  0  0  0  0  0
   10.4271   43.5383  129.1565 C   0  0  0  0  0  0  0  0  0  0  0  0
    9.1032   43.3820  128.8232 C   0  0  0  0  0  0  0  0  0  0  0  0
    8.6208   43.6423  127.5284 C   0  0  0  0  0  0  0  0  0  0  0  0
    9.6072   44.6419  124.5152 H   0  0  0  0  0  0  0  0  0  0  0  0
   11.1389   45.7628  130.7085 C   0  0  0  0  0  0  0  0  0  0  0  0
   10.1875   45.8884  129.7057 C   0  0  0  0  0  0  0  0  0  0  0  0
    9.6325   47.1088  129.3831 C   0  0  0  0  0  0  0  0  0  0  0  0
    9.9947   48.2750  130.0437 C   0  0  0  0  0  0  0  0  0  0  0  0
   10.9388   48.1499  131.0420 C   0  0  0  0  0  0  0  0  0  0  0  0
   11.4780   46.9312  131.3457 C   0  0  0  0  0  0  0  0  0  0  0  0
    9.4488   49.5008  129.7277 O   0  0  0  0  0  0  0  0  0  0  0  0
    8.0816   49.7332  129.6328 C   0  0  0  0  0  0  0  0  0  0  0  0
    7.2818   48.9224  130.6137 C   0  0  0  0  0  0  0  0  0  0  0  0
    8.1291   48.1856  131.5641 N   0  0  0  0  0  0  0  0  0  0  0  0
    7.4774   46.9856  132.0018 C   0  0  0  0  0  0  0  0  0  0  0  0
    8.4409   46.0960  132.7325 C   0  0  0  0  0  0  0  0  0  0  0  0
    9.2918   46.9196  133.6433 C   0  0  0  0  0  0  0  0  0  0  0  0
    8.5386   48.1934  133.9469 C   0  0  0  0  0  0  0  0  0  0  0  0
    8.4555   49.0154  132.6921 C   0  0  0  0  0  0  0  0  0  0  0  0
 13 14  1  0  0  0
 14 15  2  0  0  0
 15 16  1  0  0  0
 16 17  2  0  0  0
 17 18  1  0  0  0
 18 19  2  0  0  0
 17  1  1  0  0  0
  1  2  1  0  0  0
  2  3  1  0  0  0
  3  4  2  0  0  0
  4  5  1  0  0  0
  5  6  2  0  0  0
  6  7  1  0  0  0
  6  8  1  0  0  0
  8  9  2  0  0  0
  9 10  1  0  0  0
 10 11  1  0  0  0
 11 21  1  0  0  0
 21 22  2  0  0  0
 22 23  1  0  0  0
 23 24  2  0  0  0
 24 27  1  0  0  0
 27 28  1  0  0  0
 28 29  1  0  0  0
 29 30  1  0  0  0
 30 31  1  0  0  0
 31 32  1  0  0  0
 32 33  1  0  0  0
 33 34  1  0  0  0
 34 35  1  0  0  0
 24 25  1  0  0  0
 25 26  2  0  0  0
 19 14  1  0  0  0
 11  1  1  0  0  0
 26 21  1  0  0  0
  9  3  1  0  0  0
 35 30  1  0  0  0
 13 20  1  0  0  0
  7 12  1  0  0  0
M  END
> <minimizedAffinity>
11.30314

> <CNNscore>
0.3017256260

> <CNNaffinity>
7.4066824913

> <CNN_VS>
2.2347857952

> <CNNaffinity_variance>
0.5196760297

$$$$
[H]Oc1c([H])c([H])c([C@]2([H])Sc3c([H])c([H])c(O[H])c([H])c3O[C@]2([H])c2c([H])c([H])c(OC([H])([H])C([H])([H])N3C([H])([H])C([H])([H])C([H])([H])C([H])([H])C3([H])[H])c([H])c2[H])c([H])c1[H]


 35 39  0  0  0  0  0  0  0  0999 V2000
   10.7876   45.1606  131.2229 C   0  0  0  0  0  0  0  0  0  0  0  0
    9.5106   44.2188  132.0951 S   0  0  0  0  0  0  0  0  0  0  0  0
    9.6659   44.6728  133.7913 C   0  0  0  0  0  0  0  0  0  0  0  0
    9.0840   43.9256  134.7478 C   0  0  0  0  0  0  0  0  0  0  0  0
    9.1740   44.2375  136.0797 C   0  0  0  0  0  0  0  0  0  0  0  0
    9.8797   45.3482  136.4639 C   0  0  0  0  0  0  0  0  0  0  0  0
    9.9895   45.6934  137.8263 O   0  0  0  0  0  0  0  0  0  0  0  0
   10.4787   46.1197  135.4964 C   0  0  0  0  0  0  0  0  0  0  0  0
   10.3754   45.7841  134.1395 C   0  0  0  0  0  0  0  0  0  0  0  0
   10.9838   46.5754  133.2193 O   0  0  0  0  0  0  0  0  0  0  0  0
   11.0328   46.5055  131.8499 C   0  0  0  0  0  0  0  0  0  0  0  0
    9.2451   46.3115  138.1582 H   0  0  0  0  0  0  0  0  0  0  0  0
    9.9004   45.5742  125.5983 O   0  0  0  0  0  0  0  0  0  0  0  0
   10.1198   45.4786  126.9732 C   0  0  0  0  0  0  0  0  0  0  0  0
   11.3257   45.7952  127.5567 C   0  0  0  0  0  0  0  0  0  0  0  0
   11.5176   45.6926  128.9124 C   0  0  0  0  0  0  0  0  0  0  0  0
   10.5148   45.2648  129.7762 C   0  0  0  0  0  0  0  0  0  0  0  0
    9.3126   44.9498  129.1900 C   0  0  0  0  0  0  0  0  0  0  0  0
    9.1060   45.0514  127.8028 C   0  0  0  0  0  0  0  0  0  0  0  0
   10.6450   45.8889  124.9776 H   0  0  0  0  0  0  0  0  0  0  0  0
   10.2078   47.6044  131.2913 C   0  0  0  0  0  0  0  0  0  0  0  0
   10.4703   48.1386  130.0374 C   0  0  0  0  0  0  0  0  0  0  0  0
    9.7088   49.1611  129.5121 C   0  0  0  0  0  0  0  0  0  0  0  0
    8.6399   49.7094  130.2082 C   0  0  0  0  0  0  0  0  0  0  0  0
    8.3774   49.1769  131.4537 C   0  0  0  0  0  0  0  0  0  0  0  0
    9.1451   48.1644  131.9572 C   0  0  0  0  0  0  0  0  0  0  0  0
    7.8735   50.7337  129.6944 O   0  0  0  0  0  0  0  0  0  0  0  0
    7.0859   50.6092  128.5557 C   0  0  0  0  0  0  0  0  0  0  0  0
    7.2045   49.2579  127.9083 C   0  0  0  0  0  0  0  0  0  0  0  0
    6.1851   48.3100  128.3840 N   0  0  0  0  0  0  0  0  0  0  0  0
    5.3315   48.9273  129.3570 C   0  0  0  0  0  0  0  0  0  0  0  0
    4.1282   48.0708  129.6254 C   0  0  0  0  0  0  0  0  0  0  0  0
    4.5435   46.6390  129.7222 C   0  0  0  0  0  0  0  0  0  0  0  0
    6.0073   46.6105  130.0945 C   0  0  0  0  0  0  0  0  0  0  0  0
    6.8092   47.1397  128.9394 C   0  0  0  0  0  0  0  0  0  0  0  0
 13 14  1  0  0  0
 14 15  2  0  0  0
 15 16  1  0  0  0
 16 17  2  0  0  0
 17 18  1  0  0  0
 18 19  2  0  0  0
 17  1  1  0  0  0
  1  2  1  0  0  0
  2  3  1  0  0  0
  3  4  2  0  0  0
  4  5  1  0  0  0
  5  6  2  0  0  0
  6  7  1  0  0  0
  6  8  1  0  0  0
  8  9  2  0  0  0
  9 10  1  0  0  0
 10 11  1  0  0  0
 11 21  1  0  0  0
 21 22  2  0  0  0
 22 23  1  0  0  0
 23 24  2  0  0  0
 24 27  1  0  0  0
 27 28  1  0  0  0
 28 29  1  0  0  0
 29 30  1  0  0  0
 30 31  1  0  0  0
 31 32  1  0  0  0
 32 33  1  0  0  0
 33 34  1  0  0  0
 34 35  1  0  0  0
 24 25  1  0  0  0
 25 26  2  0  0  0
 19 14  1  0  0  0
 11  1  1  0  0  0
 26 21  1  0  0  0
  9  3  1  0  0  0
 35 30  1  0  0  0
 13 20  1  0  0  0
  7 12  1  0  0  0
M  END
> <minimizedAffinity>
13.89882

> <CNNscore>
0.2743000984

> <CNNaffinity>
7.2741789818

> <CNN_VS>
1.9953080416

> <CNNaffinity_variance>
0.5114625692

$$$$
[H]Oc1c([H])c([H])c([C@]2([H])Sc3c([H])c([H])c(O[H])c([H])c3O[C@]2([H])c2c([H])c([H])c(OC([H])([H])C([H])([H])N3C([H])([H])C([H])([H])C([H])([H])C([H])([H])C3([H])[H])c([H])c2[H])c([H])c1[H]


 35 39  0  0  0  0  0  0  0  0999 V2000
   11.4552   44.5278  130.9611 C   0  0  0  0  0  0  0  0  0  0  0  0
   10.3207   43.3340  131.7135 S   0  0  0  0  0  0  0  0  0  0  0  0
   10.6870   43.3577  133.4377 C   0  0  0  0  0  0  0  0  0  0  0  0
   10.2489   42.3667  134.2362 C   0  0  0  0  0  0  0  0  0  0  0  0
   10.5057   42.3404  135.5825 C   0  0  0  0  0  0  0  0  0  0  0  0
   11.2343   43.3548  136.1479 C   0  0  0  0  0  0  0  0  0  0  0  0
   11.5141   43.3542  137.5296 O   0  0  0  0  0  0  0  0  0  0  0  0
   11.6876   44.3729  135.3428 C   0  0  0  0  0  0  0  0  0  0  0  0
   11.4148   44.3817  133.9681 C   0  0  0  0  0  0  0  0  0  0  0  0
   11.8831   45.4078  133.2124 O   0  0  0  0  0  0  0  0  0  0  0  0
   11.7546   45.6844  131.8747 C   0  0  0  0  0  0  0  0  0  0  0  0
   10.8078   43.8310  138.0953 H   0  0  0  0  0  0  0  0  0  0  0  0
    9.8171   46.3496  125.8044 O   0  0  0  0  0  0  0  0  0  0  0  0
   10.2175   45.9100  127.0669 C   0  0  0  0  0  0  0  0  0  0  0  0
   11.2484   46.4970  127.7653 C   0  0  0  0  0  0  0  0  0  0  0  0
   11.6246   46.0461  129.0064 C   0  0  0  0  0  0  0  0  0  0  0  0
   10.9944   44.9757  129.6324 C   0  0  0  0  0  0  0  0  0  0  0  0
    9.9660   44.3926  128.9322 C   0  0  0  0  0  0  0  0  0  0  0  0
    9.5731   44.8467  127.6607 C   0  0  0  0  0  0  0  0  0  0  0  0
   10.2887   47.1351  125.3579 H   0  0  0  0  0  0  0  0  0  0  0  0
   10.8433   46.8443  131.7179 C   0  0  0  0  0  0  0  0  0  0  0  0
   11.2075   47.9520  130.9652 C   0  0  0  0  0  0  0  0  0  0  0  0
   10.3663   49.0344  130.8160 C   0  0  0  0  0  0  0  0  0  0  0  0
    9.1117   49.0734  131.4093 C   0  0  0  0  0  0  0  0  0  0  0  0
    8.7486   47.9713  132.1558 C   0  0  0  0  0  0  0  0  0  0  0  0
    9.5975   46.9089  132.2926 C   0  0  0  0  0  0  0  0  0  0  0  0
    8.2636   50.1512  131.2696 O   0  0  0  0  0  0  0  0  0  0  0  0
    8.1322   50.8799  130.0931 C   0  0  0  0  0  0  0  0  0  0  0  0
    7.1948   50.2369  129.1095 C   0  0  0  0  0  0  0  0  0  0  0  0
    6.7580   48.8981  129.5348 N   0  0  0  0  0  0  0  0  0  0  0  0
    7.4278   47.8806  128.7782 C   0  0  0  0  0  0  0  0  0  0  0  0
    7.2093   46.5303  129.3968 C   0  0  0  0  0  0  0  0  0  0  0  0
    5.7835   46.3992  129.8233 C   0  0  0  0  0  0  0  0  0  0  0  0
    4.9672   47.3653  128.9972 C   0  0  0  0  0  0  0  0  0  0  0  0
    5.3330   48.7675  129.3936 C   0  0  0  0  0  0  0  0  0  0  0  0
 13 14  1  0  0  0
 14 15  2  0  0  0
 15 16  1  0  0  0
 16 17  2  0  0  0
 17 18  1  0  0  0
 18 19  2  0  0  0
 17  1  1  0  0  0
  1  2  1  0  0  0
  2  3  1  0  0  0
  3  4  2  0  0  0
  4  5  1  0  0  0
  5  6  2  0  0  0
  6  7  1  0  0  0
  6  8  1  0  0  0
  8  9  2  0  0  0
  9 10  1  0  0  0
 10 11  1  0  0  0
 11 21  1  0  0  0
 21 22  2  0  0  0
 22 23  1  0  0  0
 23 24  2  0  0  0
 24 27  1  0  0  0
 27 28  1  0  0  0
 28 29  1  0  0  0
 29 30  1  0  0  0
 30 31  1  0  0  0
 31 32  1  0  0  0
 32 33  1  0  0  0
 33 34  1  0  0  0
 34 35  1  0  0  0
 24 25  1  0  0  0
 25 26  2  0  0  0
 19 14  1  0  0  0
 11  1  1  0  0  0
 26 21  1  0  0  0
  9  3  1  0  0  0
 35 30  1  0  0  0
 13 20  1  0  0  0
  7 12  1  0  0  0
M  END
> <minimizedAffinity>
9.90368

> <CNNscore>
0.2702326775

> <CNNaffinity>
7.5377120972

> <CNN_VS>
2.0369360447

> <CNNaffinity_variance>
0.6374834180

$$$$
[H]C1=C2C([H])([H])C([H])([H])[C@@]3([H])[C@]4([H])C([H])([H])C([H])([H])C([H])([H])[C@@]4(C([H])([H])[H])C([H])([H])C([H])([H])[C@]3([H])[C@@]2(C([H])([H])[H])C([H])([H])C([H])([H])C1=O


 20 23  0  0  0  0  0  0  0  0999 V2000
   11.4064   44.2437  129.7146 C   0  0  0  0  0  0  0  0  0  0  0  0
   10.5542   43.8041  130.8562 C   0  0  0  0  0  0  0  0  0  0  0  0
    9.1501   43.6431  130.3977 C   0  0  0  0  0  0  0  0  0  0  0  0
    8.4370   44.9211  130.0718 C   0  0  0  0  0  0  0  0  0  0  0  0
    8.7863   46.0859  130.9014 C   0  0  0  0  0  0  0  0  0  0  0  0
   10.2339   46.1466  131.3337 C   0  0  0  0  0  0  0  0  0  0  0  0
   10.5032   47.2952  132.2258 C   0  0  0  0  0  0  0  0  0  0  0  0
    9.4866   48.3705  132.2935 C   0  0  0  0  0  0  0  0  0  0  0  0
    8.5942   48.5062  131.1357 C   0  0  0  0  0  0  0  0  0  0  0  0
    7.9498   49.6229  130.8795 C   0  0  0  0  0  0  0  0  0  0  0  0
    7.0532   49.7391  129.7067 C   0  0  0  0  0  0  0  0  0  0  0  0
    6.8609   50.8194  129.1336 O   0  0  0  0  0  0  0  0  0  0  0  0
    6.3753   48.5104  129.2209 C   0  0  0  0  0  0  0  0  0  0  0  0
    6.8648   47.2930  130.0008 C   0  0  0  0  0  0  0  0  0  0  0  0
    8.3841   47.3615  130.1994 C   0  0  0  0  0  0  0  0  0  0  0  0
    9.0443   47.5686  128.8775 C   0  0  0  0  0  0  0  0  0  0  0  0
   10.5037   44.8329  131.9959 C   0  0  0  0  0  0  0  0  0  0  0  0
   11.8306   44.6539  132.6129 C   0  0  0  0  0  0  0  0  0  0  0  0
   11.8644   43.1436  132.7901 C   0  0  0  0  0  0  0  0  0  0  0  0
   11.1052   42.6214  131.5890 C   0  0  0  0  0  0  0  0  0  0  0  0
  2  1  1  0  0  0
  2  3  1  0  0  0
  3  4  1  0  0  0
  4  5  1  0  0  0
  5  6  1  0  0  0
  6  7  1  0  0  0
  7  8  1  0  0  0
  8  9  1  0  0  0
  9 10  2  0  0  0
 10 11  1  0  0  0
 11 12  2  0  0  0
 11 13  1  0  0  0
 13 14  1  0  0  0
 14 15  1  0  0  0
 15 16  1  0  0  0
  6 17  1  0  0  0
 17 18  1  0  0  0
 18 19  1  0  0  0
 19 20  1  0  0  0
 17  2  1  0  0  0
 20  2  1  0  0  0
 15  5  1  0  0  0
 15  9  1  0  0  0
M  END
> <minimizedAffinity>
-10.14503

> <CNNscore>
0.7559614778

> <CNNaffinity>
7.6831641197

> <CNN_VS>
5.8081760406

> <CNNaffinity_variance>
0.4443627894

$$$$
[H]C1=C2C([H])([H])C([H])([H])[C@@]3([H])[C@]4([H])C([H])([H])C([H])([H])C([H])([H])[C@@]4(C([H])([H])[H])C([H])([H])C([H])([H])[C@]3([H])[C@@]2(C([H])([H])[H])C([H])([H])C([H])([H])C1=O


 20 23  0  0  0  0  0  0  0  0999 V2000
   10.0518   49.3229  130.3827 C   0  0  0  0  0  0  0  0  0  0  0  0
    8.6952   49.1760  130.9834 C   0  0  0  0  0  0  0  0  0  0  0  0
    8.8217   48.8000  132.4153 C   0  0  0  0  0  0  0  0  0  0  0  0
    9.3237   47.4096  132.6658 C   0  0  0  0  0  0  0  0  0  0  0  0
    8.9033   46.3859  131.6950 C   0  0  0  0  0  0  0  0  0  0  0  0
    8.7841   46.8740  130.2689 C   0  0  0  0  0  0  0  0  0  0  0  0
    8.2851   45.8212  129.3576 C   0  0  0  0  0  0  0  0  0  0  0  0
    8.3044   44.4217  129.8428 C   0  0  0  0  0  0  0  0  0  0  0  0
    9.2670   44.1068  130.9056 C   0  0  0  0  0  0  0  0  0  0  0  0
    9.6743   42.8784  131.1354 C   0  0  0  0  0  0  0  0  0  0  0  0
   10.6454   42.5815  132.2134 C   0  0  0  0  0  0  0  0  0  0  0  0
   11.4295   41.6261  132.1438 O   0  0  0  0  0  0  0  0  0  0  0  0
   10.6611   43.4694  133.4035 C   0  0  0  0  0  0  0  0  0  0  0  0
    9.7021   44.6398  133.2027 C   0  0  0  0  0  0  0  0  0  0  0  0
    9.8200   45.1880  131.7753 C   0  0  0  0  0  0  0  0  0  0  0  0
   11.2512   45.4900  131.4807 C   0  0  0  0  0  0  0  0  0  0  0  0
    7.8702   48.0563  130.3312 C   0  0  0  0  0  0  0  0  0  0  0  0
    7.4915   48.6783  129.0494 C   0  0  0  0  0  0  0  0  0  0  0  0
    6.9417   50.0132  129.5285 C   0  0  0  0  0  0  0  0  0  0  0  0
    7.8015   50.3488  130.7284 C   0  0  0  0  0  0  0  0  0  0  0  0
  2  1  1  0  0  0
  2  3  1  0  0  0
  3  4  1  0  0  0
  4  5  1  0  0  0
  5  6  1  0  0  0
  6  7  1  0  0  0
  7  8  1  0  0  0
  8  9  1  0  0  0
  9 10  2  0  0  0
 10 11  1  0  0  0
 11 12  2  0  0  0
 11 13  1  0  0  0
 13 14  1  0  0  0
 14 15  1  0  0  0
 15 16  1  0  0  0
  6 17  1  0  0  0
 17 18  1  0  0  0
 18 19  1  0  0  0
 19 20  1  0  0  0
 17  2  1  0  0  0
 20  2  1  0  0  0
 15  5  1  0  0  0
 15  9  1  0  0  0
M  END
> <minimizedAffinity>
-9.72537

> <CNNscore>
0.6866793633

> <CNNaffinity>
7.4554023743

> <CNN_VS>
5.1194710732

> <CNNaffinity_variance>
0.0993574709

$$$$
[H]C1=C2C([H])([H])C([H])([H])[C@@]3([H])[C@]4([H])C([H])([H])C([H])([H])C([H])([H])[C@@]4(C([H])([H])[H])C([H])([H])C([H])([H])[C@]3([H])[C@@]2(C([H])([H])[H])C([H])([H])C([H])([H])C1=O


 20 23  0  0  0  0  0  0  0  0999 V2000
   10.4545   44.6384  133.8325 C   0  0  0  0  0  0  0  0  0  0  0  0
   11.2032   44.4647  132.5550 C   0  0  0  0  0  0  0  0  0  0  0  0
   11.9501   45.7103  132.2412 C   0  0  0  0  0  0  0  0  0  0  0  0
   11.0996   46.8778  131.8394 C   0  0  0  0  0  0  0  0  0  0  0  0
    9.8885   46.5593  131.0654 C   0  0  0  0  0  0  0  0  0  0  0  0
    9.2142   45.2609  131.4469 C   0  0  0  0  0  0  0  0  0  0  0  0
    8.0513   44.9604  130.5838 C   0  0  0  0  0  0  0  0  0  0  0  0
    7.5092   46.0572  129.7486 C   0  0  0  0  0  0  0  0  0  0  0  0
    7.7770   47.4263  130.2056 C   0  0  0  0  0  0  0  0  0  0  0  0
    7.0427   48.4460  129.8198 C   0  0  0  0  0  0  0  0  0  0  0  0
    7.3300   49.8200  130.2916 C   0  0  0  0  0  0  0  0  0  0  0  0
    6.4395   50.6718  130.4095 O   0  0  0  0  0  0  0  0  0  0  0  0
    8.7351   50.1638  130.6274 C   0  0  0  0  0  0  0  0  0  0  0  0
    9.6213   48.9252  130.5258 C   0  0  0  0  0  0  0  0  0  0  0  0
    8.9118   47.7095  131.1347 C   0  0  0  0  0  0  0  0  0  0  0  0
    8.4569   48.0457  132.5154 C   0  0  0  0  0  0  0  0  0  0  0  0
   10.2821   44.2181  131.3506 C   0  0  0  0  0  0  0  0  0  0  0  0
    9.8741   42.8191  131.5738 C   0  0  0  0  0  0  0  0  0  0  0  0
   11.2252   42.1578  131.7999 C   0  0  0  0  0  0  0  0  0  0  0  0
   12.0324   43.2196  132.5158 C   0  0  0  0  0  0  0  0  0  0  0  0
  2  1  1  0  0  0
  2  3  1  0  0  0
  3  4  1  0  0  0
  4  5  1  0  0  0
  5  6  1  0  0  0
  6  7  1  0  0  0
  7  8  1  0  0  0
  8  9  1  0  0  0
  9 10  2  0  0  0
 10 11  1  0  0  0
 11 12  2  0  0  0
 11 13  1  0  0  0
 13 14  1  0  0  0
 14 15  1  0  0  0
 15 16  1  0  0  0
  6 17  1  0  0  0
 17 18  1  0  0  0
 18 19  1  0  0  0
 19 20  1  0  0  0
 17  2  1  0  0  0
 20  2  1  0  0  0
 15  5  1  0  0  0
 15  9  1  0  0  0
M  END
> <minimizedAffinity>
-9.62570

> <CNNscore>
0.6817141771

> <CNNaffinity>
7.5462350845

> <CNN_VS>
5.1443753242

> <CNNaffinity_variance>
0.4066537917

$$$$
[H]C1=C2C([H])([H])C([H])([H])[C@@]3([H])[C@]4([H])C([H])([H])C([H])([H])C([H])([H])[C@@]4(C([H])([H])[H])C([H])([H])C([H])([H])[C@]3([H])[C@@]2(C([H])([H])[H])C([H])([H])C([H])([H])C1=O


 20 23  0  0  0  0  0  0  0  0999 V2000
   12.8173   43.7831  130.8893 C   0  0  0  0  0  0  0  0  0  0  0  0
   11.9620   44.9012  130.3984 C   0  0  0  0  0  0  0  0  0  0  0  0
   11.3980   45.6431  131.5557 C   0  0  0  0  0  0  0  0  0  0  0  0
   10.3586   44.9012  132.3413 C   0  0  0  0  0  0  0  0  0  0  0  0
    9.4774   44.0107  131.5681 C   0  0  0  0  0  0  0  0  0  0  0  0
   10.1412   43.3193  130.3987 C   0  0  0  0  0  0  0  0  0  0  0  0
    9.1875   42.5014  129.6183 C   0  0  0  0  0  0  0  0  0  0  0  0
    7.8772   42.1912  130.2356 C   0  0  0  0  0  0  0  0  0  0  0  0
    7.8144   42.2313  131.7018 C   0  0  0  0  0  0  0  0  0  0  0  0
    6.8782   41.6023  132.3768 C   0  0  0  0  0  0  0  0  0  0  0  0
    6.8319   41.6562  133.8560 C   0  0  0  0  0  0  0  0  0  0  0  0
    6.3628   40.7305  134.5309 O   0  0  0  0  0  0  0  0  0  0  0  0
    7.3696   42.8663  134.5282 C   0  0  0  0  0  0  0  0  0  0  0  0
    8.0034   43.8029  133.5031 C   0  0  0  0  0  0  0  0  0  0  0  0
    8.8255   43.0028  132.4852 C   0  0  0  0  0  0  0  0  0  0  0  0
    9.7866   42.1227  133.2116 C   0  0  0  0  0  0  0  0  0  0  0  0
   10.7517   44.4165  129.5860 C   0  0  0  0  0  0  0  0  0  0  0  0
   11.3871   44.0325  128.3124 C   0  0  0  0  0  0  0  0  0  0  0  0
   12.2077   45.2777  128.0130 C   0  0  0  0  0  0  0  0  0  0  0  0
   12.6381   45.7647  129.3802 C   0  0  0  0  0  0  0  0  0  0  0  0
  2  1  1  0  0  0
  2  3  1  0  0  0
  3  4  1  0  0  0
  4  5  1  0  0  0
  5  6  1  0  0  0
  6  7  1  0  0  0
  7  8  1  0  0  0
  8  9  1  0  0  0
  9 10  2  0  0  0
 10 11  1  0  0  0
 11 12  2  0  0  0
 11 13  1  0  0  0
 13 14  1  0  0  0
 14 15  1  0  0  0
 15 16  1  0  0  0
  6 17  1  0  0  0
 17 18  1  0  0  0
 18 19  1  0  0  0
 19 20  1  0  0  0
 17  2  1  0  0  0
 20  2  1  0  0  0
 15  5  1  0  0  0
 15  9  1  0  0  0
M  END
> <minimizedAffinity>
12.38988

> <CNNscore>
0.5565948486

> <CNNaffinity>
6.9259810448

> <CNN_VS>
3.8549654484

> <CNNaffinity_variance>
1.8160670996

$$$$
[H]C1=C2C([H])([H])C([H])([H])[C@@]3([H])[C@]4([H])C([H])([H])C([H])([H])C([H])([H])[C@@]4(C([H])([H])[H])C([H])([H])C([H])([H])[C@]3([H])[C@@]2(C([H])([H])[H])C([H])([H])C([H])([H])C1=O


 20 23  0  0  0  0  0  0  0  0999 V2000
    6.2639   47.6665  129.6758 C   0  0  0  0  0  0  0  0  0  0  0  0
    7.4451   48.5064  129.3268 C   0  0  0  0  0  0  0  0  0  0  0  0
    8.2850   47.7959  128.3280 C   0  0  0  0  0  0  0  0  0  0  0  0
    9.0164   46.5960  128.8506 C   0  0  0  0  0  0  0  0  0  0  0  0
    9.4844   46.6803  130.2437 C   0  0  0  0  0  0  0  0  0  0  0  0
    8.5694   47.4416  131.1761 C   0  0  0  0  0  0  0  0  0  0  0  0
    9.1309   47.5568  132.5396 C   0  0  0  0  0  0  0  0  0  0  0  0
   10.2641   46.6721  132.8969 C   0  0  0  0  0  0  0  0  0  0  0  0
   10.3957   45.4283  132.1283 C   0  0  0  0  0  0  0  0  0  0  0  0
   11.0674   44.3947  132.5848 C   0  0  0  0  0  0  0  0  0  0  0  0
   11.1892   43.1490  131.7932 C   0  0  0  0  0  0  0  0  0  0  0  0
   11.3185   42.0413  132.3307 O   0  0  0  0  0  0  0  0  0  0  0  0
   11.1526   43.2558  130.3125 C   0  0  0  0  0  0  0  0  0  0  0  0
   10.8598   44.6939  129.8932 C   0  0  0  0  0  0  0  0  0  0  0  0
    9.7641   45.2965  130.7812 C   0  0  0  0  0  0  0  0  0  0  0  0
    8.5797   44.3891  130.7855 C   0  0  0  0  0  0  0  0  0  0  0  0
    8.3648   48.7739  130.5278 C   0  0  0  0  0  0  0  0  0  0  0  0
    7.5832   49.7719  131.2804 C   0  0  0  0  0  0  0  0  0  0  0  0
    7.2569   50.7709  130.1808 C   0  0  0  0  0  0  0  0  0  0  0  0
    7.0867   49.9090  128.9479 C   0  0  0  0  0  0  0  0  0  0  0  0
  2  1  1  0  0  0
  2  3  1  0  0  0
  3  4  1  0  0  0
  4  5  1  0  0  0
  5  6  1  0  0  0
  6  7  1  0  0  0
  7  8  1  0  0  0
  8  9  1  0  0  0
  9 10  2  0  0  0
 10 11  1  0  0  0
 11 12  2  0  0  0
 11 13  1  0  0  0
 13 14  1  0  0  0
 14 15  1  0  0  0
 15 16  1  0  0  0
  6 17  1  0  0  0
 17 18  1  0  0  0
 18 19  1  0  0  0
 19 20  1  0  0  0
 17  2  1  0  0  0
 20  2  1  0  0  0
 15  5  1  0  0  0
 15  9  1  0  0  0
M  END
> <minimizedAffinity>
-8.03182

> <CNNscore>
0.4841980338

> <CNNaffinity>
7.1147356033

> <CNN_VS>
3.4449410439

> <CNNaffinity_variance>
0.1691332161

$$$$
[H]C1=C2C([H])([H])C([H])([H])[C@@]3([H])[C@]4([H])C([H])([H])C([H])([H])C([H])([H])[C@@]4(C([H])([H])[H])C([H])([H])C([H])([H])[C@]3([H])[C@@]2(C([H])([H])[H])C([H])([H])C([H])([H])C1=O


 20 23  0  0  0  0  0  0  0  0999 V2000
    6.6391   47.0228  129.8870 C   0  0  0  0  0  0  0  0  0  0  0  0
    7.7830   47.8170  129.3544 C   0  0  0  0  0  0  0  0  0  0  0  0
    8.7988   46.9011  128.7737 C   0  0  0  0  0  0  0  0  0  0  0  0
    9.5526   46.0733  129.7709 C   0  0  0  0  0  0  0  0  0  0  0  0
    9.8301   46.7154  131.0662 C   0  0  0  0  0  0  0  0  0  0  0  0
    8.7443   47.6447  131.5598 C   0  0  0  0  0  0  0  0  0  0  0  0
    9.1155   48.3160  132.8245 C   0  0  0  0  0  0  0  0  0  0  0  0
   10.2619   47.7686  133.5864 C   0  0  0  0  0  0  0  0  0  0  0  0
   10.5916   46.3569  133.3555 C   0  0  0  0  0  0  0  0  0  0  0  0
   11.2813   45.6512  134.2240 C   0  0  0  0  0  0  0  0  0  0  0  0
   11.6045   44.2282  133.9717 C   0  0  0  0  0  0  0  0  0  0  0  0
   11.7537   43.4167  134.8946 O   0  0  0  0  0  0  0  0  0  0  0  0
   11.7491   43.7838  132.5622 C   0  0  0  0  0  0  0  0  0  0  0  0
   11.3962   44.9232  131.6098 C   0  0  0  0  0  0  0  0  0  0  0  0
   10.1505   45.6675  132.1060 C   0  0  0  0  0  0  0  0  0  0  0  0
    9.0531   44.6854  132.3456 C   0  0  0  0  0  0  0  0  0  0  0  0
    8.5166   48.6139  130.4437 C   0  0  0  0  0  0  0  0  0  0  0  0
    7.5664   49.7129  130.6945 C   0  0  0  0  0  0  0  0  0  0  0  0
    7.3032   50.1952  129.2761 C   0  0  0  0  0  0  0  0  0  0  0  0
    7.3630   48.9302  128.4469 C   0  0  0  0  0  0  0  0  0  0  0  0
  2  1  1  0  0  0
  2  3  1  0  0  0
  3  4  1  0  0  0
  4  5  1  0  0  0
  5  6  1  0  0  0
  6  7  1  0  0  0
  7  8  1  0  0  0
  8  9  1  0  0  0
  9 10  2  0  0  0
 10 11  1  0  0  0
 11 12  2  0  0  0
 11 13  1  0  0  0
 13 14  1  0  0  0
 14 15  1  0  0  0
 15 16  1  0  0  0
  6 17  1  0  0  0
 17 18  1  0  0  0
 18 19  1  0  0  0
 19 20  1  0  0  0
 17  2  1  0  0  0
 20  2  1  0  0  0
 15  5  1  0  0  0
 15  9  1  0  0  0
M  END
> <minimizedAffinity>
-9.63233

> <CNNscore>
0.4790064394

> <CNNaffinity>
7.1747398376

> <CNN_VS>
3.4367465973

> <CNNaffinity_variance>
0.1294165701

$$$$
[H]C1=C2C([H])([H])C([H])([H])[C@@]3([H])[C@]4([H])C([H])([H])C([H])([H])C([H])([H])[C@@]4(C([H])([H])[H])C([H])([H])C([H])([H])[C@]3([H])[C@@]2(C([H])([H])[H])C([H])([H])C([H])([H])C1=O


 20 23  0  0  0  0  0  0  0  0999 V2000
   11.0918   48.4013  132.8994 C   0  0  0  0  0  0  0  0  0  0  0  0
    9.6326   48.7041  132.8548 C   0  0  0  0  0  0  0  0  0  0  0  0
    8.8952   47.7319  133.7028 C   0  0  0  0  0  0  0  0  0  0  0  0
    8.8446   46.3321  133.1682 C   0  0  0  0  0  0  0  0  0  0  0  0
    8.7681   46.2016  131.7039 C   0  0  0  0  0  0  0  0  0  0  0  0
    9.5351   47.2514  130.9319 C   0  0  0  0  0  0  0  0  0  0  0  0
    9.3561   47.1122  129.4703 C   0  0  0  0  0  0  0  0  0  0  0  0
    8.7856   45.8432  128.9619 C   0  0  0  0  0  0  0  0  0  0  0  0
    8.9399   44.6620  129.8199 C   0  0  0  0  0  0  0  0  0  0  0  0
    8.8612   43.4394  129.3435 C   0  0  0  0  0  0  0  0  0  0  0  0
    9.0188   42.2608  130.2261 C   0  0  0  0  0  0  0  0  0  0  0  0
    9.4700   41.1860  129.8094 O   0  0  0  0  0  0  0  0  0  0  0  0
    8.6172   42.3952  131.6494 C   0  0  0  0  0  0  0  0  0  0  0  0
    8.2159   43.8365  131.9518 C   0  0  0  0  0  0  0  0  0  0  0  0
    9.1916   44.8136  131.2844 C   0  0  0  0  0  0  0  0  0  0  0  0
   10.5877   44.4554  131.6700 C   0  0  0  0  0  0  0  0  0  0  0  0
    9.0353   48.5638  131.4465 C   0  0  0  0  0  0  0  0  0  0  0  0
    9.5460   49.7798  130.7879 C   0  0  0  0  0  0  0  0  0  0  0  0
    9.1614   50.8421  131.8063 C   0  0  0  0  0  0  0  0  0  0  0  0
    9.3137   50.1385  133.1380 C   0  0  0  0  0  0  0  0  0  0  0  0
  2  1  1  0  0  0
  2  3  1  0  0  0
  3  4  1  0  0  0
  4  5  1  0  0  0
  5  6  1  0  0  0
  6  7  1  0  0  0
  7  8  1  0  0  0
  8  9  1  0  0  0
  9 10  2  0  0  0
 10 11  1  0  0  0
 11 12  2  0  0  0
 11 13  1  0  0  0
 13 14  1  0  0  0
 14 15  1  0  0  0
 15 16  1  0  0  0
  6 17  1  0  0  0
 17 18  1  0  0  0
 18 19  1  0  0  0
 19 20  1  0  0  0
 17  2  1  0  0  0
 20  2  1  0  0  0
 15  5  1  0  0  0
 15  9  1  0  0  0
M  END
> <minimizedAffinity>
-3.70190

> <CNNscore>
0.4583286047

> <CNNaffinity>
7.0283751488

> <CNN_VS>
3.2213053703

> <CNNaffinity_variance>
0.7366478443

$$$$
[H]C1=C2C([H])([H])C([H])([H])[C@@]3([H])[C@]4([H])C([H])([H])C([H])([H])C([H])([H])[C@@]4(C([H])([H])[H])C([H])([H])C([H])([H])[C@]3([H])[C@@]2(C([H])([H])[H])C([H])([H])C([H])([H])C1=O


 20 23  0  0  0  0  0  0  0  0999 V2000
    8.0535   42.9638  130.8509 C   0  0  0  0  0  0  0  0  0  0  0  0
    9.0480   43.3979  131.8732 C   0  0  0  0  0  0  0  0  0  0  0  0
    8.3978   44.3168  132.8431 C   0  0  0  0  0  0  0  0  0  0  0  0
    8.0404   45.6671  132.2984 C   0  0  0  0  0  0  0  0  0  0  0  0
    8.9641   46.2255  131.2973 C   0  0  0  0  0  0  0  0  0  0  0  0
    9.5893   45.2063  130.3718 C   0  0  0  0  0  0  0  0  0  0  0  0
   10.5633   45.8186  129.4423 C   0  0  0  0  0  0  0  0  0  0  0  0
   10.5450   47.2925  129.2949 C   0  0  0  0  0  0  0  0  0  0  0  0
    9.2856   47.9712  129.6243 C   0  0  0  0  0  0  0  0  0  0  0  0
    8.9988   49.1692  129.1658 C   0  0  0  0  0  0  0  0  0  0  0  0
    7.7230   49.8373  129.5108 C   0  0  0  0  0  0  0  0  0  0  0  0
    7.1816   50.6489  128.7488 O   0  0  0  0  0  0  0  0  0  0  0  0
    7.0926   49.5087  130.8145 C   0  0  0  0  0  0  0  0  0  0  0  0
    7.8722   48.3983  131.5138 C   0  0  0  0  0  0  0  0  0  0  0  0
    8.2760   47.3138  130.5074 C   0  0  0  0  0  0  0  0  0  0  0  0
    7.0662   46.8593  129.7617 C   0  0  0  0  0  0  0  0  0  0  0  0
   10.2183   44.1899  131.2709 C   0  0  0  0  0  0  0  0  0  0  0  0
   10.9987   43.1177  130.6269 C   0  0  0  0  0  0  0  0  0  0  0  0
   11.1066   42.1159  131.7664 C   0  0  0  0  0  0  0  0  0  0  0  0
    9.7909   42.2606  132.5010 C   0  0  0  0  0  0  0  0  0  0  0  0
  2  1  1  0  0  0
  2  3  1  0  0  0
  3  4  1  0  0  0
  4  5  1  0  0  0
  5  6  1  0  0  0
  6  7  1  0  0  0
  7  8  1  0  0  0
  8  9  1  0  0  0
  9 10  2  0  0  0
 10 11  1  0  0  0
 11 12  2  0  0  0
 11 13  1  0  0  0
 13 14  1  0  0  0
 14 15  1  0  0  0
 15 16  1  0  0  0
  6 17  1  0  0  0
 17 18  1  0  0  0
 18 19  1  0  0  0
 19 20  1  0  0  0
 17  2  1  0  0  0
 20  2  1  0  0  0
 15  5  1  0  0  0
 15  9  1  0  0  0
M  END
> <minimizedAffinity>
-6.18561

> <CNNscore>
0.4551339746

> <CNNaffinity>
6.9892935753

> <CNN_VS>
3.1810650826

> <CNNaffinity_variance>
0.4551042616

$$$$
[H]C1=C2C([H])([H])C([H])([H])[C@@]3([H])[C@]4([H])C([H])([H])C([H])([H])C([H])([H])[C@@]4(C([H])([H])[H])C([H])([H])C([H])([H])[C@]3([H])[C@@]2(C([H])([H])[H])C([H])([H])C([H])([H])C1=O


 20 23  0  0  0  0  0  0  0  0999 V2000
   12.2282   46.4237  133.6973 C   0  0  0  0  0  0  0  0  0  0  0  0
   12.0166   45.0317  133.2071 C   0  0  0  0  0  0  0  0  0  0  0  0
   12.3456   44.9569  131.7600 C   0  0  0  0  0  0  0  0  0  0  0  0
   11.3808   45.6579  130.8514 C   0  0  0  0  0  0  0  0  0  0  0  0
    9.9677   45.6290  131.2630 C   0  0  0  0  0  0  0  0  0  0  0  0
    9.7399   45.6885  132.7566 C   0  0  0  0  0  0  0  0  0  0  0  0
    8.3075   45.5781  133.1084 C   0  0  0  0  0  0  0  0  0  0  0  0
    7.3137   45.7717  132.0270 C   0  0  0  0  0  0  0  0  0  0  0  0
    7.7482   46.5602  130.8674 C   0  0  0  0  0  0  0  0  0  0  0  0
    6.8903   47.1431  130.0599 C   0  0  0  0  0  0  0  0  0  0  0  0
    7.3491   47.9335  128.8947 C   0  0  0  0  0  0  0  0  0  0  0  0
    6.6930   48.8837  128.4484 O   0  0  0  0  0  0  0  0  0  0  0  0
    8.6371   47.5572  128.2586 C   0  0  0  0  0  0  0  0  0  0  0  0
    9.3170   46.4482  129.0572 C   0  0  0  0  0  0  0  0  0  0  0  0
    9.2009   46.7250  130.5611 C   0  0  0  0  0  0  0  0  0  0  0  0
    9.6984   48.1021  130.8480 C   0  0  0  0  0  0  0  0  0  0  0  0
   10.5558   44.5714  133.3252 C   0  0  0  0  0  0  0  0  0  0  0  0
   10.4403   44.3283  134.7747 C   0  0  0  0  0  0  0  0  0  0  0  0
   11.6618   43.4552  135.0184 C   0  0  0  0  0  0  0  0  0  0  0  0
   12.6917   43.9953  134.0493 C   0  0  0  0  0  0  0  0  0  0  0  0
  2  1  1  0  0  0
  2  3  1  0  0  0
  3  4  1  0  0  0
  4  5  1  0  0  0
  5  6  1  0  0  0
  6  7  1  0  0  0
  7  8  1  0  0  0
  8  9  1  0  0  0
  9 10  2  0  0  0
 10 11  1  0  0  0
 11 12  2  0  0  0
 11 13  1  0  0  0
 13 14  1  0  0  0
 14 15  1  0  0  0
 15 16  1  0  0  0
  6 17  1  0  0  0
 17 18  1  0  0  0
 18 19  1  0  0  0
 19 20  1  0  0  0
 17  2  1  0  0  0
 20  2  1  0  0  0
 15  5  1  0  0  0
 15  9  1  0  0  0
M  END
> <minimizedAffinity>
-5.21689

> <CNNscore>
0.4348210394

> <CNNaffinity>
6.9934959412

> <CNN_VS>
3.0409190655

> <CNNaffinity_variance>
0.5262382627

$$$$
[H]Oc1c([H])c([H])c([C@@]2([H])Sc3c([H])c(O[H])c([H])c([H])c3O[C@@]2([H])c2c([H])c([H])c(OC([H])([H])C([H])([H])N3C([H])([H])C([H])([H])C([H])([H])C3([H])[H])c([H])c2[H])c([H])c1[H]


 34 38  0  0  0  0  0  0  0  0999 V2000
    8.7960   47.2430  131.0688 C   0  0  0  0  0  0  0  0  0  0  0  0
    8.3658   45.8097  132.1606 S   0  0  0  0  0  0  0  0  0  0  0  0
    9.9624   45.3233  132.7338 C   0  0  0  0  0  0  0  0  0  0  0  0
   10.0851   44.4624  133.7783 C   0  0  0  0  0  0  0  0  0  0  0  0
   11.3141   44.0512  134.2666 C   0  0  0  0  0  0  0  0  0  0  0  0
   11.4441   43.1735  135.3313 O   0  0  0  0  0  0  0  0  0  0  0  0
   12.4504   44.5381  133.6651 C   0  0  0  0  0  0  0  0  0  0  0  0
   12.3536   45.4142  132.6020 C   0  0  0  0  0  0  0  0  0  0  0  0
   11.0909   45.8055  132.1382 C   0  0  0  0  0  0  0  0  0  0  0  0
   11.0798   46.6861  131.0682 O   0  0  0  0  0  0  0  0  0  0  0  0
    9.8991   46.7897  130.2326 C   0  0  0  0  0  0  0  0  0  0  0  0
   11.4947   43.5841  136.2767 H   0  0  0  0  0  0  0  0  0  0  0  0
    4.4661   50.1252  128.9160 O   0  0  0  0  0  0  0  0  0  0  0  0
    5.5472   49.4222  129.4633 C   0  0  0  0  0  0  0  0  0  0  0  0
    6.5564   50.0493  130.1471 C   0  0  0  0  0  0  0  0  0  0  0  0
    7.6059   49.3232  130.6723 C   0  0  0  0  0  0  0  0  0  0  0  0
    7.6767   47.9420  130.5283 C   0  0  0  0  0  0  0  0  0  0  0  0
    6.6567   47.3485  129.8421 C   0  0  0  0  0  0  0  0  0  0  0  0
    5.5972   48.0624  129.3093 C   0  0  0  0  0  0  0  0  0  0  0  0
    4.4194   51.1419  129.0263 H   0  0  0  0  0  0  0  0  0  0  0  0
    9.8336   45.5389  129.5138 C   0  0  0  0  0  0  0  0  0  0  0  0
   10.9370   45.2661  128.6846 C   0  0  0  0  0  0  0  0  0  0  0  0
   11.0225   44.1172  127.9390 C   0  0  0  0  0  0  0  0  0  0  0  0
   10.0182   43.1763  127.9744 C   0  0  0  0  0  0  0  0  0  0  0  0
    8.9301   43.4273  128.7809 C   0  0  0  0  0  0  0  0  0  0  0  0
    8.8438   44.5980  129.5407 C   0  0  0  0  0  0  0  0  0  0  0  0
   10.0982   42.0101  127.2220 O   0  0  0  0  0  0  0  0  0  0  0  0
   10.0689   40.7812  127.8705 C   0  0  0  0  0  0  0  0  0  0  0  0
   10.2814   39.5877  127.0097 C   0  0  0  0  0  0  0  0  0  0  0  0
   11.5589   39.3880  126.4611 N   0  0  0  0  0  0  0  0  0  0  0  0
   11.7401   39.6579  125.0747 C   0  0  0  0  0  0  0  0  0  0  0  0
   13.2605   39.4746  124.9466 C   0  0  0  0  0  0  0  0  0  0  0  0
   13.4680   38.2413  125.8200 C   0  0  0  0  0  0  0  0  0  0  0  0
   12.3015   38.2403  126.8179 C   0  0  0  0  0  0  0  0  0  0  0  0
 13 14  1  0  0  0
 14 15  2  0  0  0
 15 16  1  0  0  0
 16 17  2  0  0  0
 17 18  1  0  0  0
 18 19  2  0  0  0
 17  1  1  0  0  0
  1  2  1  0  0  0
  2  3  1  0  0  0
  3  4  2  0  0  0
  4  5  1  0  0  0
  5  6  1  0  0  0
  5  7  2  0  0  0
  7  8  1  0  0  0
  8  9  2  0  0  0
  9 10  1  0  0  0
 10 11  1  0  0  0
 11 21  1  0  0  0
 21 22  2  0  0  0
 22 23  1  0  0  0
 23 24  2  0  0  0
 24 27  1  0  0  0
 27 28  1  0  0  0
 28 29  1  0  0  0
 29 30  1  0  0  0
 30 31  1  0  0  0
 31 32  1  0  0  0
 32 33  1  0  0  0
 33 34  1  0  0  0
 24 25  1  0  0  0
 25 26  2  0  0  0
 19 14  1  0  0  0
 11  1  1  0  0  0
 26 21  1  0  0  0
  9  3  1  0  0  0
 34 30  1  0  0  0
 13 20  1  0  0  0
  6 12  1  0  0  0
M  END
> <minimizedAffinity>
5.78109

> <CNNscore>
0.4904621840

> <CNNaffinity>
7.6416001320

> <CNN_VS>
3.7479159832

> <CNNaffinity_variance>
0.5366522670

$$$$
[H]Oc1c([H])c([H])c([C@@]2([H])Sc3c([H])c(O[H])c([H])c([H])c3O[C@@]2([H])c2c([H])c([H])c(OC([H])([H])C([H])([H])N3C([H])([H])C([H])([H])C([H])([H])C3([H])[H])c([H])c2[H])c([H])c1[H]


 34 38  0  0  0  0  0  0  0  0999 V2000
   10.2968   43.9701  131.2813 C   0  0  0  0  0  0  0  0  0  0  0  0
    9.1124   42.7089  130.6194 S   0  0  0  0  0  0  0  0  0  0  0  0
    9.6452   42.5848  128.9416 C   0  0  0  0  0  0  0  0  0  0  0  0
    9.2108   41.5644  128.1559 C   0  0  0  0  0  0  0  0  0  0  0  0
    9.6002   41.4214  126.8346 C   0  0  0  0  0  0  0  0  0  0  0  0
    9.1597   40.3827  126.0297 O   0  0  0  0  0  0  0  0  0  0  0  0
   10.4609   42.3531  126.3044 C   0  0  0  0  0  0  0  0  0  0  0  0
   10.9174   43.3997  127.0812 C   0  0  0  0  0  0  0  0  0  0  0  0
   10.4993   43.5083  128.4138 C   0  0  0  0  0  0  0  0  0  0  0  0
   11.0020   44.5862  129.1251 O   0  0  0  0  0  0  0  0  0  0  0  0
   10.3080   45.0547  130.3091 C   0  0  0  0  0  0  0  0  0  0  0  0
    9.7264   39.5203  126.0214 H   0  0  0  0  0  0  0  0  0  0  0  0
    9.8363   44.7864  136.8321 O   0  0  0  0  0  0  0  0  0  0  0  0
    9.9336   44.5761  135.4505 C   0  0  0  0  0  0  0  0  0  0  0  0
    9.1297   43.6850  134.7880 C   0  0  0  0  0  0  0  0  0  0  0  0
    9.2548   43.5043  133.4256 C   0  0  0  0  0  0  0  0  0  0  0  0
   10.1922   44.2134  132.6826 C   0  0  0  0  0  0  0  0  0  0  0  0
   10.9770   45.0920  133.3721 C   0  0  0  0  0  0  0  0  0  0  0  0
   10.8640   45.2847  134.7382 C   0  0  0  0  0  0  0  0  0  0  0  0
    9.1435   44.2619  137.3733 H   0  0  0  0  0  0  0  0  0  0  0  0
    9.0815   45.6408  129.8216 C   0  0  0  0  0  0  0  0  0  0  0  0
    8.4931   46.5938  130.6731 C   0  0  0  0  0  0  0  0  0  0  0  0
    7.3266   47.2399  130.3490 C   0  0  0  0  0  0  0  0  0  0  0  0
    6.6796   46.9760  129.1629 C   0  0  0  0  0  0  0  0  0  0  0  0
    7.2417   46.0453  128.3170 C   0  0  0  0  0  0  0  0  0  0  0  0
    8.4304   45.3876  128.6478 C   0  0  0  0  0  0  0  0  0  0  0  0
    5.4978   47.6269  128.8277 O   0  0  0  0  0  0  0  0  0  0  0  0
    5.1189   48.7563  129.5436 C   0  0  0  0  0  0  0  0  0  0  0  0
    5.8352   50.0130  129.2001 C   0  0  0  0  0  0  0  0  0  0  0  0
    7.0911   50.2391  129.7872 N   0  0  0  0  0  0  0  0  0  0  0  0
    8.2237   49.5982  129.2088 C   0  0  0  0  0  0  0  0  0  0  0  0
    9.3579   50.2327  130.0291 C   0  0  0  0  0  0  0  0  0  0  0  0
    8.7343   50.2248  131.4212 C   0  0  0  0  0  0  0  0  0  0  0  0
    7.2161   50.2354  131.1943 C   0  0  0  0  0  0  0  0  0  0  0  0
 13 14  1  0  0  0
 14 15  2  0  0  0
 15 16  1  0  0  0
 16 17  2  0  0  0
 17 18  1  0  0  0
 18 19  2  0  0  0
 17  1  1  0  0  0
  1  2  1  0  0  0
  2  3  1  0  0  0
  3  4  2  0  0  0
  4  5  1  0  0  0
  5  6  1  0  0  0
  5  7  2  0  0  0
  7  8  1  0  0  0
  8  9  2  0  0  0
  9 10  1  0  0  0
 10 11  1  0  0  0
 11 21  1  0  0  0
 21 22  2  0  0  0
 22 23  1  0  0  0
 23 24  2  0  0  0
 24 27  1  0  0  0
 27 28  1  0  0  0
 28 29  1  0  0  0
 29 30  1  0  0  0
 30 31  1  0  0  0
 31 32  1  0  0  0
 32 33  1  0  0  0
 33 34  1  0  0  0
 24 25  1  0  0  0
 25 26  2  0  0  0
 19 14  1  0  0  0
 11  1  1  0  0  0
 26 21  1  0  0  0
  9  3  1  0  0  0
 34 30  1  0  0  0
 13 20  1  0  0  0
  6 12  1  0  0  0
M  END
> <minimizedAffinity>
20.17850

> <CNNscore>
0.3203230798

> <CNNaffinity>
7.4045777321

> <CNN_VS>
2.3718571663

> <CNNaffinity_variance>
1.2120850086

$$$$
[H]Oc1c([H])c([H])c([C@@]2([H])Sc3c([H])c(O[H])c([H])c([H])c3O[C@@]2([H])c2c([H])c([H])c(OC([H])([H])C([H])([H])N3C([H])([H])C([H])([H])C([H])([H])C3([H])[H])c([H])c2[H])c([H])c1[H]


 34 38  0  0  0  0  0  0  0  0999 V2000
   10.3192   43.6381  131.2093 C   0  0  0  0  0  0  0  0  0  0  0  0
   11.9853   44.4397  131.3246 S   0  0  0  0  0  0  0  0  0  0  0  0
   11.9023   45.1749  132.9268 C   0  0  0  0  0  0  0  0  0  0  0  0
   13.0273   45.6464  133.5261 C   0  0  0  0  0  0  0  0  0  0  0  0
   13.0159   46.2301  134.7819 C   0  0  0  0  0  0  0  0  0  0  0  0
   14.1606   46.7123  135.3968 O   0  0  0  0  0  0  0  0  0  0  0  0
   11.8144   46.3326  135.4420 C   0  0  0  0  0  0  0  0  0  0  0  0
   10.6563   45.8613  134.8555 C   0  0  0  0  0  0  0  0  0  0  0  0
   10.7109   45.2774  133.5833 C   0  0  0  0  0  0  0  0  0  0  0  0
    9.5060   44.8303  133.0649 O   0  0  0  0  0  0  0  0  0  0  0  0
    9.3605   44.6493  131.6334 C   0  0  0  0  0  0  0  0  0  0  0  0
   14.6895   46.0542  135.9902 H   0  0  0  0  0  0  0  0  0  0  0  0
    9.5711   40.6265  126.5123 O   0  0  0  0  0  0  0  0  0  0  0  0
    9.7491   41.3906  127.6729 C   0  0  0  0  0  0  0  0  0  0  0  0
    9.7190   42.7611  127.6581 C   0  0  0  0  0  0  0  0  0  0  0  0
    9.8987   43.4804  128.8220 C   0  0  0  0  0  0  0  0  0  0  0  0
   10.1145   42.8466  130.0408 C   0  0  0  0  0  0  0  0  0  0  0  0
   10.1392   41.4819  130.0212 C   0  0  0  0  0  0  0  0  0  0  0  0
    9.9607   40.7460  128.8625 C   0  0  0  0  0  0  0  0  0  0  0  0
    9.4117   41.0991  125.6184 H   0  0  0  0  0  0  0  0  0  0  0  0
    9.3790   45.9829  131.0797 C   0  0  0  0  0  0  0  0  0  0  0  0
    8.8297   46.9816  131.9045 C   0  0  0  0  0  0  0  0  0  0  0  0
    8.7766   48.2977  131.5195 C   0  0  0  0  0  0  0  0  0  0  0  0
    9.2648   48.6953  130.2953 C   0  0  0  0  0  0  0  0  0  0  0  0
    9.8061   47.7304  129.4747 C   0  0  0  0  0  0  0  0  0  0  0  0
    9.8602   46.3896  129.8678 C   0  0  0  0  0  0  0  0  0  0  0  0
    9.2146   50.0268  129.8988 O   0  0  0  0  0  0  0  0  0  0  0  0
    8.2607   50.8666  130.4613 C   0  0  0  0  0  0  0  0  0  0  0  0
    7.1187   51.2324  129.5825 C   0  0  0  0  0  0  0  0  0  0  0  0
    6.1838   50.2335  129.2642 N   0  0  0  0  0  0  0  0  0  0  0  0
    5.3083   49.7856  130.2942 C   0  0  0  0  0  0  0  0  0  0  0  0
    4.3836   48.8541  129.4948 C   0  0  0  0  0  0  0  0  0  0  0  0
    5.3987   48.1590  128.5930 C   0  0  0  0  0  0  0  0  0  0  0  0
    6.5788   49.1332  128.4711 C   0  0  0  0  0  0  0  0  0  0  0  0
 13 14  1  0  0  0
 14 15  2  0  0  0
 15 16  1  0  0  0
 16 17  2  0  0  0
 17 18  1  0  0  0
 18 19  2  0  0  0
 17  1  1  0  0  0
  1  2  1  0  0  0
  2  3  1  0  0  0
  3  4  2  0  0  0
  4  5  1  0  0  0
  5  6  1  0  0  0
  5  7  2  0  0  0
  7  8  1  0  0  0
  8  9  2  0  0  0
  9 10  1  0  0  0
 10 11  1  0  0  0
 11 21  1  0  0  0
 21 22  2  0  0  0
 22 23  1  0  0  0
 23 24  2  0  0  0
 24 27  1  0  0  0
 27 28  1  0  0  0
 28 29  1  0  0  0
 29 30  1  0  0  0
 30 31  1  0  0  0
 31 32  1  0  0  0
 32 33  1  0  0  0
 33 34  1  0  0  0
 24 25  1  0  0  0
 25 26  2  0  0  0
 19 14  1  0  0  0
 11  1  1  0  0  0
 26 21  1  0  0  0
  9  3  1  0  0  0
 34 30  1  0  0  0
 13 20  1  0  0  0
  6 12  1  0  0  0
M  END
> <minimizedAffinity>
14.71547

> <CNNscore>
0.3168385029

> <CNNaffinity>
7.3911561966

> <CNN_VS>
2.3418028355

> <CNNaffinity_variance>
1.5657713413

$$$$
[H]Oc1c([H])c([H])c([C@@]2([H])Sc3c([H])c(O[H])c([H])c([H])c3O[C@@]2([H])c2c([H])c([H])c(OC([H])([H])C([H])([H])N3C([H])([H])C([H])([H])C([H])([H])C3([H])[H])c([H])c2[H])c([H])c1[H]


 34 38  0  0  0  0  0  0  0  0999 V2000
    7.4325   45.1410  130.8467 C   0  0  0  0  0  0  0  0  0  0  0  0
    9.1810   44.7764  130.3550 S   0  0  0  0  0  0  0  0  0  0  0  0
    9.5740   43.4459  131.4456 C   0  0  0  0  0  0  0  0  0  0  0  0
   10.6868   42.6934  131.2391 C   0  0  0  0  0  0  0  0  0  0  0  0
   11.0385   41.6383  132.0643 C   0  0  0  0  0  0  0  0  0  0  0  0
   12.1723   40.8684  131.8577 O   0  0  0  0  0  0  0  0  0  0  0  0
   10.2238   41.3469  133.1327 C   0  0  0  0  0  0  0  0  0  0  0  0
    9.0870   42.0959  133.3650 C   0  0  0  0  0  0  0  0  0  0  0  0
    8.7667   43.1553  132.5061 C   0  0  0  0  0  0  0  0  0  0  0  0
    7.6106   43.8573  132.8080 O   0  0  0  0  0  0  0  0  0  0  0  0
    7.4331   45.2047  132.3019 C   0  0  0  0  0  0  0  0  0  0  0  0
   12.0715   40.0321  131.2615 H   0  0  0  0  0  0  0  0  0  0  0  0
    4.9530   49.0016  127.5852 O   0  0  0  0  0  0  0  0  0  0  0  0
    5.5865   48.0492  128.3939 C   0  0  0  0  0  0  0  0  0  0  0  0
    6.9340   47.8078  128.3209 C   0  0  0  0  0  0  0  0  0  0  0  0
    7.5232   46.8610  129.1339 C   0  0  0  0  0  0  0  0  0  0  0  0
    6.7780   46.1248  130.0483 C   0  0  0  0  0  0  0  0  0  0  0  0
    5.4396   46.3888  130.0958 C   0  0  0  0  0  0  0  0  0  0  0  0
    4.8336   47.3349  129.2873 C   0  0  0  0  0  0  0  0  0  0  0  0
    5.5074   49.5410  126.9147 H   0  0  0  0  0  0  0  0  0  0  0  0
    8.3950   46.0080  133.0195 C   0  0  0  0  0  0  0  0  0  0  0  0
    9.5496   46.3516  132.2926 C   0  0  0  0  0  0  0  0  0  0  0  0
   10.5542   47.1122  132.8362 C   0  0  0  0  0  0  0  0  0  0  0  0
   10.4690   47.5731  134.1305 C   0  0  0  0  0  0  0  0  0  0  0  0
    9.3453   47.2460  134.8571 C   0  0  0  0  0  0  0  0  0  0  0  0
    8.3219   46.4712  134.3024 C   0  0  0  0  0  0  0  0  0  0  0  0
   11.4826   48.3444  134.6878 O   0  0  0  0  0  0  0  0  0  0  0  0
   11.6485   49.6569  134.2618 C   0  0  0  0  0  0  0  0  0  0  0  0
   10.4062   50.3748  133.8722 C   0  0  0  0  0  0  0  0  0  0  0  0
    9.9530   50.2407  132.5495 N   0  0  0  0  0  0  0  0  0  0  0  0
    8.5979   49.8541  132.3437 C   0  0  0  0  0  0  0  0  0  0  0  0
    8.4933   49.9897  130.8165 C   0  0  0  0  0  0  0  0  0  0  0  0
    9.8364   49.4047  130.3912 C   0  0  0  0  0  0  0  0  0  0  0  0
   10.7738   49.6072  131.5899 C   0  0  0  0  0  0  0  0  0  0  0  0
 13 14  1  0  0  0
 14 15  2  0  0  0
 15 16  1  0  0  0
 16 17  2  0  0  0
 17 18  1  0  0  0
 18 19  2  0  0  0
 17  1  1  0  0  0
  1  2  1  0  0  0
  2  3  1  0  0  0
  3  4  2  0  0  0
  4  5  1  0  0  0
  5  6  1  0  0  0
  5  7  2  0  0  0
  7  8  1  0  0  0
  8  9  2  0  0  0
  9 10  1  0  0  0
 10 11  1  0  0  0
 11 21  1  0  0  0
 21 22  2  0  0  0
 22 23  1  0  0  0
 23 24  2  0  0  0
 24 27  1  0  0  0
 27 28  1  0  0  0
 28 29  1  0  0  0
 29 30  1  0  0  0
 30 31  1  0  0  0
 31 32  1  0  0  0
 32 33  1  0  0  0
 33 34  1  0  0  0
 24 25  1  0  0  0
 25 26  2  0  0  0
 19 14  1  0  0  0
 11  1  1  0  0  0
 26 21  1  0  0  0
  9  3  1  0  0  0
 34 30  1  0  0  0
 13 20  1  0  0  0
  6 12  1  0  0  0
M  END
> <minimizedAffinity>
10.15133

> <CNNscore>
0.3027958274

> <CNNaffinity>
7.2627191544

> <CNN_VS>
2.1991209984

> <CNNaffinity_variance>
0.3890832067

$$$$
[H]Oc1c([H])c([H])c([C@@]2([H])Sc3c([H])c(O[H])c([H])c([H])c3O[C@@]2([H])c2c([H])c([H])c(OC([H])([H])C([H])([H])N3C([H])([H])C([H])([H])C([H])([H])C3([H])[H])c([H])c2[H])c([H])c1[H]


 34 38  0  0  0  0  0  0  0  0999 V2000
    8.0195   46.4983  129.6433 C   0  0  0  0  0  0  0  0  0  0  0  0
    9.4783   46.0045  128.6140 S   0  0  0  0  0  0  0  0  0  0  0  0
    9.3813   44.2447  128.7030 C   0  0  0  0  0  0  0  0  0  0  0  0
   10.1169   43.4721  127.8609 C   0  0  0  0  0  0  0  0  0  0  0  0
   10.0754   42.0881  127.8893 C   0  0  0  0  0  0  0  0  0  0  0  0
   10.8238   41.2962  127.0327 O   0  0  0  0  0  0  0  0  0  0  0  0
    9.2546   41.4794  128.8089 C   0  0  0  0  0  0  0  0  0  0  0  0
    8.4965   42.2413  129.6761 C   0  0  0  0  0  0  0  0  0  0  0  0
    8.5673   43.6390  129.6148 C   0  0  0  0  0  0  0  0  0  0  0  0
    7.7764   44.3303  130.5187 O   0  0  0  0  0  0  0  0  0  0  0  0
    8.1024   45.7015  130.8598 C   0  0  0  0  0  0  0  0  0  0  0  0
   10.3900   41.0343  126.1337 H   0  0  0  0  0  0  0  0  0  0  0  0
    6.8569   52.0063  129.6746 O   0  0  0  0  0  0  0  0  0  0  0  0
    7.1454   50.6357  129.6482 C   0  0  0  0  0  0  0  0  0  0  0  0
    6.8574   49.8485  128.5634 C   0  0  0  0  0  0  0  0  0  0  0  0
    7.1562   48.5013  128.5739 C   0  0  0  0  0  0  0  0  0  0  0  0
    7.7550   47.8993  129.6751 C   0  0  0  0  0  0  0  0  0  0  0  0
    8.0281   48.7104  130.7385 C   0  0  0  0  0  0  0  0  0  0  0  0
    7.7347   50.0632  130.7437 C   0  0  0  0  0  0  0  0  0  0  0  0
    6.4170   52.4436  128.8603 H   0  0  0  0  0  0  0  0  0  0  0  0
    9.3248   45.6207  131.6244 C   0  0  0  0  0  0  0  0  0  0  0  0
    9.2973   44.7197  132.7046 C   0  0  0  0  0  0  0  0  0  0  0  0
   10.3818   44.5297  133.5238 C   0  0  0  0  0  0  0  0  0  0  0  0
   11.5527   45.2233  133.3168 C   0  0  0  0  0  0  0  0  0  0  0  0
   11.5973   46.1100  132.2636 C   0  0  0  0  0  0  0  0  0  0  0  0
   10.4920   46.3029  131.4292 C   0  0  0  0  0  0  0  0  0  0  0  0
   12.6554   45.0358  134.1424 O   0  0  0  0  0  0  0  0  0  0  0  0
   13.2603   46.1417  134.7278 C   0  0  0  0  0  0  0  0  0  0  0  0
   12.3913   47.3333  134.9158 C   0  0  0  0  0  0  0  0  0  0  0  0
   11.0032   47.1666  134.7801 N   0  0  0  0  0  0  0  0  0  0  0  0
   10.2617   48.2149  134.1643 C   0  0  0  0  0  0  0  0  0  0  0  0
    8.8722   47.5645  134.0751 C   0  0  0  0  0  0  0  0  0  0  0  0
    8.7991   46.8737  135.4331 C   0  0  0  0  0  0  0  0  0  0  0  0
   10.2557   46.6278  135.8508 C   0  0  0  0  0  0  0  0  0  0  0  0
 13 14  1  0  0  0
 14 15  2  0  0  0
 15 16  1  0  0  0
 16 17  2  0  0  0
 17 18  1  0  0  0
 18 19  2  0  0  0
 17  1  1  0  0  0
  1  2  1  0  0  0
  2  3  1  0  0  0
  3  4  2  0  0  0
  4  5  1  0  0  0
  5  6  1  0  0  0
  5  7  2  0  0  0
  7  8  1  0  0  0
  8  9  2  0  0  0
  9 10  1  0  0  0
 10 11  1  0  0  0
 11 21  1  0  0  0
 21 22  2  0  0  0
 22 23  1  0  0  0
 23 24  2  0  0  0
 24 27  1  0  0  0
 27 28  1  0  0  0
 28 29  1  0  0  0
 29 30  1  0  0  0
 30 31  1  0  0  0
 31 32  1  0  0  0
 32 33  1  0  0  0
 33 34  1  0  0  0
 24 25  1  0  0  0
 25 26  2  0  0  0
 19 14  1  0  0  0
 11  1  1  0  0  0
 26 21  1  0  0  0
  9  3  1  0  0  0
 34 30  1  0  0  0
 13 20  1  0  0  0
  6 12  1  0  0  0
M  END
> <minimizedAffinity>
6.40699

> <CNNscore>
0.2991285026

> <CNNaffinity>
7.5352678299

> <CNN_VS>
2.2540132999

> <CNNaffinity_variance>
0.8226515055

$$$$
[H]Oc1c([H])c([H])c([C@@]2([H])Sc3c([H])c(O[H])c([H])c([H])c3O[C@@]2([H])c2c([H])c([H])c(OC([H])([H])C([H])([H])N3C([H])([H])C([H])([H])C([H])([H])C3([H])[H])c([H])c2[H])c([H])c1[H]


 34 38  0  0  0  0  0  0  0  0999 V2000
    8.6598   47.0552  128.7825 C   0  0  0  0  0  0  0  0  0  0  0  0
    7.0647   47.1125  129.7227 S   0  0  0  0  0  0  0  0  0  0  0  0
    6.7757   48.8515  129.8030 C   0  0  0  0  0  0  0  0  0  0  0  0
    5.5620   49.3300  130.1837 C   0  0  0  0  0  0  0  0  0  0  0  0
    5.2841   50.6845  130.2613 C   0  0  0  0  0  0  0  0  0  0  0  0
    4.0480   51.1769  130.6492 O   0  0  0  0  0  0  0  0  0  0  0  0
    6.2814   51.5739  129.9384 C   0  0  0  0  0  0  0  0  0  0  0  0
    7.5238   51.1141  129.5483 C   0  0  0  0  0  0  0  0  0  0  0  0
    7.7641   49.7355  129.4828 C   0  0  0  0  0  0  0  0  0  0  0  0
    9.0357   49.3562  129.0832 O   0  0  0  0  0  0  0  0  0  0  0  0
    9.5314   48.0348  129.4168 C   0  0  0  0  0  0  0  0  0  0  0  0
    3.3509   51.3386  129.9056 H   0  0  0  0  0  0  0  0  0  0  0  0
   10.3077   41.8283  127.4966 O   0  0  0  0  0  0  0  0  0  0  0  0
    9.8898   43.1226  127.8323 C   0  0  0  0  0  0  0  0  0  0  0  0
    8.8752   43.3552  128.7242 C   0  0  0  0  0  0  0  0  0  0  0  0
    8.4906   44.6447  129.0302 C   0  0  0  0  0  0  0  0  0  0  0  0
    9.1130   45.7446  128.4502 C   0  0  0  0  0  0  0  0  0  0  0  0
   10.1188   45.4788  127.5663 C   0  0  0  0  0  0  0  0  0  0  0  0
   10.5163   44.1915  127.2488 C   0  0  0  0  0  0  0  0  0  0  0  0
    9.8461   41.0229  127.9278 H   0  0  0  0  0  0  0  0  0  0  0  0
    9.7259   48.0539  130.8476 C   0  0  0  0  0  0  0  0  0  0  0  0
    8.5523   47.9294  131.6135 C   0  0  0  0  0  0  0  0  0  0  0  0
    8.5734   47.9285  132.9856 C   0  0  0  0  0  0  0  0  0  0  0  0
    9.7596   48.0516  133.6733 C   0  0  0  0  0  0  0  0  0  0  0  0
   10.9187   48.1747  132.9393 C   0  0  0  0  0  0  0  0  0  0  0  0
   10.8964   48.1752  131.5412 C   0  0  0  0  0  0  0  0  0  0  0  0
    9.7887   48.0512  135.0632 O   0  0  0  0  0  0  0  0  0  0  0  0
    8.8543   47.2952  135.7610 C   0  0  0  0  0  0  0  0  0  0  0  0
    8.7265   45.8741  135.3431 C   0  0  0  0  0  0  0  0  0  0  0  0
    9.9040   45.1529  135.0854 N   0  0  0  0  0  0  0  0  0  0  0  0
   10.5754   44.5541  136.1893 C   0  0  0  0  0  0  0  0  0  0  0  0
   11.6696   43.7600  135.4586 C   0  0  0  0  0  0  0  0  0  0  0  0
   12.0812   44.7687  134.3909 C   0  0  0  0  0  0  0  0  0  0  0  0
   10.8568   45.6702  134.1797 C   0  0  0  0  0  0  0  0  0  0  0  0
 13 14  1  0  0  0
 14 15  2  0  0  0
 15 16  1  0  0  0
 16 17  2  0  0  0
 17 18  1  0  0  0
 18 19  2  0  0  0
 17  1  1  0  0  0
  1  2  1  0  0  0
  2  3  1  0  0  0
  3  4  2  0  0  0
  4  5  1  0  0  0
  5  6  1  0  0  0
  5  7  2  0  0  0
  7  8  1  0  0  0
  8  9  2  0  0  0
  9 10  1  0  0  0
 10 11  1  0  0  0
 11 21  1  0  0  0
 21 22  2  0  0  0
 22 23  1  0  0  0
 23 24  2  0  0  0
 24 27  1  0  0  0
 27 28  1  0  0  0
 28 29  1  0  0  0
 29 30  1  0  0  0
 30 31  1  0  0  0
 31 32  1  0  0  0
 32 33  1  0  0  0
 33 34  1  0  0  0
 24 25  1  0  0  0
 25 26  2  0  0  0
 19 14  1  0  0  0
 11  1  1  0  0  0
 26 21  1  0  0  0
  9  3  1  0  0  0
 34 30  1  0  0  0
 13 20  1  0  0  0
  6 12  1  0  0  0
M  END
> <minimizedAffinity>
7.66383

> <CNNscore>
0.2828567028

> <CNNaffinity>
7.1075334549

> <CNN_VS>
2.0104134083

> <CNNaffinity_variance>
0.5371759534

$$$$
[H]Oc1c([H])c([H])c([C@@]2([H])Sc3c([H])c(O[H])c([H])c([H])c3O[C@@]2([H])c2c([H])c([H])c(OC([H])([H])C([H])([H])N3C([H])([H])C([H])([H])C([H])([H])C3([H])[H])c([H])c2[H])c([H])c1[H]


 34 38  0  0  0  0  0  0  0  0999 V2000
    9.1078   48.8298  131.5682 C   0  0  0  0  0  0  0  0  0  0  0  0
    8.0711   48.0601  132.8965 S   0  0  0  0  0  0  0  0  0  0  0  0
    9.3011   47.2395  133.8598 C   0  0  0  0  0  0  0  0  0  0  0  0
    9.0006   46.7619  135.0963 C   0  0  0  0  0  0  0  0  0  0  0  0
    9.9295   46.1125  135.8920 C   0  0  0  0  0  0  0  0  0  0  0  0
    9.6276   45.6237  137.1534 O   0  0  0  0  0  0  0  0  0  0  0  0
   11.2044   45.9487  135.4043 C   0  0  0  0  0  0  0  0  0  0  0  0
   11.5360   46.4247  134.1510 C   0  0  0  0  0  0  0  0  0  0  0  0
   10.5666   47.0762  133.3775 C   0  0  0  0  0  0  0  0  0  0  0  0
   10.9789   47.5234  132.1324 O   0  0  0  0  0  0  0  0  0  0  0  0
    9.9965   47.7766  131.0962 C   0  0  0  0  0  0  0  0  0  0  0  0
    9.7710   46.2611  137.9522 H   0  0  0  0  0  0  0  0  0  0  0  0
    6.3403   52.2955  128.1013 O   0  0  0  0  0  0  0  0  0  0  0  0
    7.0203   51.4409  128.9786 C   0  0  0  0  0  0  0  0  0  0  0  0
    7.1624   51.7243  130.3124 C   0  0  0  0  0  0  0  0  0  0  0  0
    7.8395   50.8581  131.1464 C   0  0  0  0  0  0  0  0  0  0  0  0
    8.3967   49.6772  130.6683 C   0  0  0  0  0  0  0  0  0  0  0  0
    8.2380   49.4249  129.3362 C   0  0  0  0  0  0  0  0  0  0  0  0
    7.5618   50.2834  128.4866 C   0  0  0  0  0  0  0  0  0  0  0  0
    5.9315   53.1629  128.4597 H   0  0  0  0  0  0  0  0  0  0  0  0
    9.4913   46.4749  130.7277 C   0  0  0  0  0  0  0  0  0  0  0  0
    9.2186   45.6114  131.8044 C   0  0  0  0  0  0  0  0  0  0  0  0
    8.7322   44.3421  131.6162 C   0  0  0  0  0  0  0  0  0  0  0  0
    8.4903   43.8595  130.3499 C   0  0  0  0  0  0  0  0  0  0  0  0
    8.7519   44.6915  129.2837 C   0  0  0  0  0  0  0  0  0  0  0  0
    9.2472   45.9849  129.4762 C   0  0  0  0  0  0  0  0  0  0  0  0
    7.9973   42.5748  130.1516 O   0  0  0  0  0  0  0  0  0  0  0  0
    8.7726   41.4849  130.5295 C   0  0  0  0  0  0  0  0  0  0  0  0
   10.2352   41.6173  130.2980 C   0  0  0  0  0  0  0  0  0  0  0  0
   10.9382   42.5763  131.0458 N   0  0  0  0  0  0  0  0  0  0  0  0
   11.9484   43.3304  130.3835 C   0  0  0  0  0  0  0  0  0  0  0  0
   12.3229   44.3327  131.4866 C   0  0  0  0  0  0  0  0  0  0  0  0
   12.3147   43.4196  132.7085 C   0  0  0  0  0  0  0  0  0  0  0  0
   11.3662   42.2653  132.3558 C   0  0  0  0  0  0  0  0  0  0  0  0
 13 14  1  0  0  0
 14 15  2  0  0  0
 15 16  1  0  0  0
 16 17  2  0  0  0
 17 18  1  0  0  0
 18 19  2  0  0  0
 17  1  1  0  0  0
  1  2  1  0  0  0
  2  3  1  0  0  0
  3  4  2  0  0  0
  4  5  1  0  0  0
  5  6  1  0  0  0
  5  7  2  0  0  0
  7  8  1  0  0  0
  8  9  2  0  0  0
  9 10  1  0  0  0
 10 11  1  0  0  0
 11 21  1  0  0  0
 21 22  2  0  0  0
 22 23  1  0  0  0
 23 24  2  0  0  0
 24 27  1  0  0  0
 27 28  1  0  0  0
 28 29  1  0  0  0
 29 30  1  0  0  0
 30 31  1  0  0  0
 31 32  1  0  0  0
 32 33  1  0  0  0
 33 34  1  0  0  0
 24 25  1  0  0  0
 25 26  2  0  0  0
 19 14  1  0  0  0
 11  1  1  0  0  0
 26 21  1  0  0  0
  9  3  1  0  0  0
 34 30  1  0  0  0
 13 20  1  0  0  0
  6 12  1  0  0  0
M  END
> <minimizedAffinity>
2.91125

> <CNNscore>
0.2754236758

> <CNNaffinity>
7.3732399940

> <CNN_VS>
2.0307648182

> <CNNaffinity_variance>
0.3981215358

$$$$
[H]Oc1c([H])c([H])c([C@@]2([H])Sc3c([H])c(O[H])c([H])c([H])c3O[C@@]2([H])c2c([H])c([H])c(OC([H])([H])C([H])([H])N3C([H])([H])C([H])([H])C([H])([H])C3([H])[H])c([H])c2[H])c([H])c1[H]


 34 38  0  0  0  0  0  0  0  0999 V2000
    9.5101   44.2863  131.0429 C   0  0  0  0  0  0  0  0  0  0  0  0
   10.8542   45.5169  131.3755 S   0  0  0  0  0  0  0  0  0  0  0  0
   10.3042   46.2235  132.8962 C   0  0  0  0  0  0  0  0  0  0  0  0
   11.1415   46.9947  133.6386 C   0  0  0  0  0  0  0  0  0  0  0  0
   10.7592   47.5704  134.8387 C   0  0  0  0  0  0  0  0  0  0  0  0
   11.6096   48.3576  135.5991 O   0  0  0  0  0  0  0  0  0  0  0  0
    9.4798   47.3478  135.2900 C   0  0  0  0  0  0  0  0  0  0  0  0
    8.6089   46.5679  134.5548 C   0  0  0  0  0  0  0  0  0  0  0  0
    9.0351   46.0035  133.3455 C   0  0  0  0  0  0  0  0  0  0  0  0
    8.1017   45.2350  132.6685 O   0  0  0  0  0  0  0  0  0  0  0  0
    8.2570   45.0007  131.2458 C   0  0  0  0  0  0  0  0  0  0  0  0
   12.1864   47.8788  136.3083 H   0  0  0  0  0  0  0  0  0  0  0  0
   10.2667   40.8980  126.6115 O   0  0  0  0  0  0  0  0  0  0  0  0
   10.0803   41.7265  127.7257 C   0  0  0  0  0  0  0  0  0  0  0  0
    9.6961   41.2350  128.9464 C   0  0  0  0  0  0  0  0  0  0  0  0
    9.5220   42.0823  130.0217 C   0  0  0  0  0  0  0  0  0  0  0  0
    9.7284   43.4526  129.9067 C   0  0  0  0  0  0  0  0  0  0  0  0
   10.1096   43.9097  128.6783 C   0  0  0  0  0  0  0  0  0  0  0  0
   10.2885   43.0732  127.5901 C   0  0  0  0  0  0  0  0  0  0  0  0
   10.1141   39.8900  126.7030 H   0  0  0  0  0  0  0  0  0  0  0  0
    8.0108   46.2799  130.6227 C   0  0  0  0  0  0  0  0  0  0  0  0
    9.0357   46.7411  129.7762 C   0  0  0  0  0  0  0  0  0  0  0  0
    8.9488   47.9381  129.1108 C   0  0  0  0  0  0  0  0  0  0  0  0
    7.8410   48.7436  129.2489 C   0  0  0  0  0  0  0  0  0  0  0  0
    6.8278   48.3077  130.0740 C   0  0  0  0  0  0  0  0  0  0  0  0
    6.9169   47.0877  130.7515 C   0  0  0  0  0  0  0  0  0  0  0  0
    7.7459   49.9573  128.5777 O   0  0  0  0  0  0  0  0  0  0  0  0
    7.3873   51.0979  129.2863 C   0  0  0  0  0  0  0  0  0  0  0  0
    6.6118   52.1155  128.5289 C   0  0  0  0  0  0  0  0  0  0  0  0
    7.2711   52.8271  127.5131 N   0  0  0  0  0  0  0  0  0  0  0  0
    7.1015   54.2403  127.4695 C   0  0  0  0  0  0  0  0  0  0  0  0
    8.0916   54.6103  126.3539 C   0  0  0  0  0  0  0  0  0  0  0  0
    7.8285   53.4823  125.3613 C   0  0  0  0  0  0  0  0  0  0  0  0
    7.2862   52.3143  126.1968 C   0  0  0  0  0  0  0  0  0  0  0  0
 13 14  1  0  0  0
 14 15  2  0  0  0
 15 16  1  0  0  0
 16 17  2  0  0  0
 17 18  1  0  0  0
 18 19  2  0  0  0
 17  1  1  0  0  0
  1  2  1  0  0  0
  2  3  1  0  0  0
  3  4  2  0  0  0
  4  5  1  0  0  0
  5  6  1  0  0  0
  5  7  2  0  0  0
  7  8  1  0  0  0
  8  9  2  0  0  0
  9 10  1  0  0  0
 10 11  1  0  0  0
 11 21  1  0  0  0
 21 22  2  0  0  0
 22 23  1  0  0  0
 23 24  2  0  0  0
 24 27  1  0  0  0
 27 28  1  0  0  0
 28 29  1  0  0  0
 29 30  1  0  0  0
 30 31  1  0  0  0
 31 32  1  0  0  0
 32 33  1  0  0  0
 33 34  1  0  0  0
 24 25  1  0  0  0
 25 26  2  0  0  0
 19 14  1  0  0  0
 11  1  1  0  0  0
 26 21  1  0  0  0
  9  3  1  0  0  0
 34 30  1  0  0  0
 13 20  1  0  0  0
  6 12  1  0  0  0
M  END
> <minimizedAffinity>
10.53451

> <CNNscore>
0.2577239871

> <CNNaffinity>
6.8727064133

> <CNN_VS>
1.7712613344

> <CNNaffinity_variance>
0.9941021800

$$$$
[H]Oc1c([H])c([H])c([C@@]2([H])Sc3c([H])c(O[H])c([H])c([H])c3O[C@@]2([H])c2c([H])c([H])c(OC([H])([H])C([H])([H])N3C([H])([H])C([H])([H])C([H])([H])C3([H])[H])c([H])c2[H])c([H])c1[H]


 34 38  0  0  0  0  0  0  0  0999 V2000
   10.0412   45.0412  131.7934 C   0  0  0  0  0  0  0  0  0  0  0  0
   11.5049   46.1491  132.0418 S   0  0  0  0  0  0  0  0  0  0  0  0
   11.1812   46.7893  133.6541 C   0  0  0  0  0  0  0  0  0  0  0  0
   12.1521   47.4483  134.3400 C   0  0  0  0  0  0  0  0  0  0  0  0
   11.9493   47.9679  135.6075 C   0  0  0  0  0  0  0  0  0  0  0  0
   12.9363   48.6407  136.3105 O   0  0  0  0  0  0  0  0  0  0  0  0
   10.7137   47.8062  136.1882 C   0  0  0  0  0  0  0  0  0  0  0  0
    9.7097   47.1405  135.5129 C   0  0  0  0  0  0  0  0  0  0  0  0
    9.9558   46.6297  134.2318 C   0  0  0  0  0  0  0  0  0  0  0  0
    8.8971   45.9758  133.6219 O   0  0  0  0  0  0  0  0  0  0  0  0
    8.8770   45.8268  132.1796 C   0  0  0  0  0  0  0  0  0  0  0  0
   13.5485   48.0760  136.9200 H   0  0  0  0  0  0  0  0  0  0  0  0
   10.0060   41.9586  127.0832 O   0  0  0  0  0  0  0  0  0  0  0  0
   10.0086   42.7109  128.2649 C   0  0  0  0  0  0  0  0  0  0  0  0
    9.2726   42.3495  129.3635 C   0  0  0  0  0  0  0  0  0  0  0  0
    9.3001   43.1161  130.5107 C   0  0  0  0  0  0  0  0  0  0  0  0
   10.0685   44.2721  130.5928 C   0  0  0  0  0  0  0  0  0  0  0  0
   10.7889   44.6042  129.4819 C   0  0  0  0  0  0  0  0  0  0  0  0
   10.7721   43.8462  128.3239 C   0  0  0  0  0  0  0  0  0  0  0  0
    9.4390   41.1080  127.0294 H   0  0  0  0  0  0  0  0  0  0  0  0
    8.6639   47.1590  131.6647 C   0  0  0  0  0  0  0  0  0  0  0  0
    8.9564   47.3273  130.2988 C   0  0  0  0  0  0  0  0  0  0  0  0
    8.8030   48.5338  129.6632 C   0  0  0  0  0  0  0  0  0  0  0  0
    8.3518   49.6397  130.3477 C   0  0  0  0  0  0  0  0  0  0  0  0
    8.0608   49.4932  131.6861 C   0  0  0  0  0  0  0  0  0  0  0  0
    8.2170   48.2634  132.3329 C   0  0  0  0  0  0  0  0  0  0  0  0
    8.1938   50.8652  129.7104 O   0  0  0  0  0  0  0  0  0  0  0  0
    7.1345   51.0390  128.8276 C   0  0  0  0  0  0  0  0  0  0  0  0
    5.8130   50.5422  129.2936 C   0  0  0  0  0  0  0  0  0  0  0  0
    5.5007   49.1904  129.0744 N   0  0  0  0  0  0  0  0  0  0  0  0
    5.1966   48.3830  130.2073 C   0  0  0  0  0  0  0  0  0  0  0  0
    4.7692   47.0774  129.5184 C   0  0  0  0  0  0  0  0  0  0  0  0
    5.8121   46.9926  128.4084 C   0  0  0  0  0  0  0  0  0  0  0  0
    6.2604   48.4381  128.1510 C   0  0  0  0  0  0  0  0  0  0  0  0
 13 14  1  0  0  0
 14 15  2  0  0  0
 15 16  1  0  0  0
 16 17  2  0  0  0
 17 18  1  0  0  0
 18 19  2  0  0  0
 17  1  1  0  0  0
  1  2  1  0  0  0
  2  3  1  0  0  0
  3  4  2  0  0  0
  4  5  1  0  0  0
  5  6  1  0  0  0
  5  7  2  0  0  0
  7  8  1  0  0  0
  8  9  2  0  0  0
  9 10  1  0  0  0
 10 11  1  0  0  0
 11 21  1  0  0  0
 21 22  2  0  0  0
 22 23  1  0  0  0
 23 24  2  0  0  0
 24 27  1  0  0  0
 27 28  1  0  0  0
 28 29  1  0  0  0
 29 30  1  0  0  0
 30 31  1  0  0  0
 31 32  1  0  0  0
 32 33  1  0  0  0
 33 34  1  0  0  0
 24 25  1  0  0  0
 25 26  2  0  0  0
 19 14  1  0  0  0
 11  1  1  0  0  0
 26 21  1  0  0  0
  9  3  1  0  0  0
 34 30  1  0  0  0
 13 20  1  0  0  0
  6 12  1  0  0  0
M  END
> <minimizedAffinity>
9.35576

> <CNNscore>
0.2523432672

> <CNNaffinity>
7.3812856674

> <CNN_VS>
1.8626177311

> <CNNaffinity_variance>
0.8439220190

$$$$
[H]C1=C2C([H])([H])C([H])([H])[C@@]3([H])[C@]4([H])C([H])([H])C([H])([H])C(=O)[C@@]4(C([H])([H])[H])C([H])([H])C([H])([H])[C@]3([H])[C@@]2(C([H])([H])[H])C([H])([H])C([H])([H])C1=O


 21 24  0  0  0  0  0  0  0  0999 V2000
   11.2966   44.0624  131.2856 C   0  0  0  0  0  0  0  0  0  0  0  0
   10.1510   44.1548  132.2602 C   0  0  0  0  0  0  0  0  0  0  0  0
    8.8405   43.9565  131.5806 C   0  0  0  0  0  0  0  0  0  0  0  0
    8.1626   45.1613  131.0806 C   0  0  0  0  0  0  0  0  0  0  0  0
    8.6923   46.4917  131.4167 C   0  0  0  0  0  0  0  0  0  0  0  0
   10.1137   46.5257  131.9418 C   0  0  0  0  0  0  0  0  0  0  0  0
   10.4222   47.8452  132.5920 C   0  0  0  0  0  0  0  0  0  0  0  0
   10.0302   49.0433  131.8023 C   0  0  0  0  0  0  0  0  0  0  0  0
    8.8481   48.8354  130.9260 C   0  0  0  0  0  0  0  0  0  0  0  0
    8.0841   49.9207  130.7347 C   0  0  0  0  0  0  0  0  0  0  0  0
    6.9009   49.8843  129.9104 C   0  0  0  0  0  0  0  0  0  0  0  0
    6.0400   50.7774  129.9058 O   0  0  0  0  0  0  0  0  0  0  0  0
    6.7183   48.7110  129.0272 C   0  0  0  0  0  0  0  0  0  0  0  0
    7.1106   47.4933  129.8404 C   0  0  0  0  0  0  0  0  0  0  0  0
    8.5339   47.5241  130.3059 C   0  0  0  0  0  0  0  0  0  0  0  0
    9.4322   47.2247  129.1350 C   0  0  0  0  0  0  0  0  0  0  0  0
   10.1297   45.4701  133.0094 C   0  0  0  0  0  0  0  0  0  0  0  0
   11.3685   45.3927  133.8207 C   0  0  0  0  0  0  0  0  0  0  0  0
   11.3677   43.9255  134.2711 C   0  0  0  0  0  0  0  0  0  0  0  0
   10.4162   43.2316  133.3759 C   0  0  0  0  0  0  0  0  0  0  0  0
    9.9466   42.1329  133.5201 O   0  0  0  0  0  0  0  0  0  0  0  0
  2  1  1  0  0  0
  2  3  1  0  0  0
  3  4  1  0  0  0
  4  5  1  0  0  0
  5  6  1  0  0  0
  6  7  1  0  0  0
  7  8  1  0  0  0
  8  9  1  0  0  0
  9 10  2  0  0  0
 10 11  1  0  0  0
 11 12  2  0  0  0
 11 13  1  0  0  0
 13 14  1  0  0  0
 14 15  1  0  0  0
 15 16  1  0  0  0
  6 17  1  0  0  0
 17 18  1  0  0  0
 18 19  1  0  0  0
 19 20  1  0  0  0
 20 21  2  0  0  0
 17  2  1  0  0  0
 20  2  1  0  0  0
 15  5  1  0  0  0
 15  9  1  0  0  0
M  END
> <minimizedAffinity>
-10.47999

> <CNNscore>
0.8678588271

> <CNNaffinity>
7.8744688034

> <CNN_VS>
6.8339271545

> <CNNaffinity_variance>
0.4452091157

$$$$
[H]C1=C2C([H])([H])C([H])([H])[C@@]3([H])[C@]4([H])C([H])([H])C([H])([H])C(=O)[C@@]4(C([H])([H])[H])C([H])([H])C([H])([H])[C@]3([H])[C@@]2(C([H])([H])[H])C([H])([H])C([H])([H])C1=O


 21 24  0  0  0  0  0  0  0  0999 V2000
    9.7153   49.6452  130.5421 C   0  0  0  0  0  0  0  0  0  0  0  0
    8.4523   48.8466  130.7356 C   0  0  0  0  0  0  0  0  0  0  0  0
    8.3484   48.3199  132.1250 C   0  0  0  0  0  0  0  0  0  0  0  0
    8.9129   46.9854  132.3733 C   0  0  0  0  0  0  0  0  0  0  0  0
    9.3812   46.1672  131.2443 C   0  0  0  0  0  0  0  0  0  0  0  0
    9.5970   46.9034  129.9371 C   0  0  0  0  0  0  0  0  0  0  0  0
    9.7081   45.9449  128.7847 C   0  0  0  0  0  0  0  0  0  0  0  0
   10.6319   44.8000  129.0047 C   0  0  0  0  0  0  0  0  0  0  0  0
   10.7409   44.3689  130.4228 C   0  0  0  0  0  0  0  0  0  0  0  0
   10.9713   43.0603  130.6033 C   0  0  0  0  0  0  0  0  0  0  0  0
   11.1029   42.4837  131.9189 C   0  0  0  0  0  0  0  0  0  0  0  0
   11.0656   41.2638  132.1405 O   0  0  0  0  0  0  0  0  0  0  0  0
   11.2923   43.4113  133.0564 C   0  0  0  0  0  0  0  0  0  0  0  0
   10.3421   44.5707  132.8309 C   0  0  0  0  0  0  0  0  0  0  0  0
   10.6059   45.3151  131.5582 C   0  0  0  0  0  0  0  0  0  0  0  0
   11.8401   46.1588  131.7385 C   0  0  0  0  0  0  0  0  0  0  0  0
    8.3354   47.6974  129.7571 C   0  0  0  0  0  0  0  0  0  0  0  0
    8.1957   48.3997  128.4586 C   0  0  0  0  0  0  0  0  0  0  0  0
    7.2709   49.5693  128.8227 C   0  0  0  0  0  0  0  0  0  0  0  0
    7.3124   49.6692  130.2981 C   0  0  0  0  0  0  0  0  0  0  0  0
    6.5690   50.2944  131.0088 O   0  0  0  0  0  0  0  0  0  0  0  0
  2  1  1  0  0  0
  2  3  1  0  0  0
  3  4  1  0  0  0
  4  5  1  0  0  0
  5  6  1  0  0  0
  6  7  1  0  0  0
  7  8  1  0  0  0
  8  9  1  0  0  0
  9 10  2  0  0  0
 10 11  1  0  0  0
 11 12  2  0  0  0
 11 13  1  0  0  0
 13 14  1  0  0  0
 14 15  1  0  0  0
 15 16  1  0  0  0
  6 17  1  0  0  0
 17 18  1  0  0  0
 18 19  1  0  0  0
 19 20  1  0  0  0
 20 21  2  0  0  0
 17  2  1  0  0  0
 20  2  1  0  0  0
 15  5  1  0  0  0
 15  9  1  0  0  0
M  END
> <minimizedAffinity>
-8.31267

> <CNNscore>
0.5697358847

> <CNNaffinity>
7.3210449219

> <CNN_VS>
4.1710619926

> <CNNaffinity_variance>
0.3507375717

$$$$
[H]C1=C2C([H])([H])C([H])([H])[C@@]3([H])[C@]4([H])C([H])([H])C([H])([H])C(=O)[C@@]4(C([H])([H])[H])C([H])([H])C([H])([H])[C@]3([H])[C@@]2(C([H])([H])[H])C([H])([H])C([H])([H])C1=O


 21 24  0  0  0  0  0  0  0  0999 V2000
    6.5110   48.4595  130.8469 C   0  0  0  0  0  0  0  0  0  0  0  0
    7.7627   48.6560  130.0313 C   0  0  0  0  0  0  0  0  0  0  0  0
    8.0161   47.4945  129.1339 C   0  0  0  0  0  0  0  0  0  0  0  0
    8.8548   46.4123  129.6691 C   0  0  0  0  0  0  0  0  0  0  0  0
    9.5420   46.5879  130.9577 C   0  0  0  0  0  0  0  0  0  0  0  0
    9.0402   47.7240  131.8267 C   0  0  0  0  0  0  0  0  0  0  0  0
   10.0215   48.0488  132.9178 C   0  0  0  0  0  0  0  0  0  0  0  0
   10.5320   46.8749  133.6756 C   0  0  0  0  0  0  0  0  0  0  0  0
   10.5970   45.6195  132.8830 C   0  0  0  0  0  0  0  0  0  0  0  0
   11.5838   44.7796  133.2278 C   0  0  0  0  0  0  0  0  0  0  0  0
   11.7820   43.5191  132.5552 C   0  0  0  0  0  0  0  0  0  0  0  0
   12.8117   42.8364  132.6662 O   0  0  0  0  0  0  0  0  0  0  0  0
   10.6878   43.0265  131.6890 C   0  0  0  0  0  0  0  0  0  0  0  0
   10.1783   44.2252  130.9133 C   0  0  0  0  0  0  0  0  0  0  0  0
    9.6406   45.3142  131.7899 C   0  0  0  0  0  0  0  0  0  0  0  0
    8.2964   44.8893  132.3194 C   0  0  0  0  0  0  0  0  0  0  0  0
    8.9851   48.8971  130.8912 C   0  0  0  0  0  0  0  0  0  0  0  0
    8.6793   50.2064  131.5167 C   0  0  0  0  0  0  0  0  0  0  0  0
    8.0429   50.9787  130.3530 C   0  0  0  0  0  0  0  0  0  0  0  0
    7.6717   49.9575  129.3492 C   0  0  0  0  0  0  0  0  0  0  0  0
    7.3565   50.1417  128.2023 O   0  0  0  0  0  0  0  0  0  0  0  0
  2  1  1  0  0  0
  2  3  1  0  0  0
  3  4  1  0  0  0
  4  5  1  0  0  0
  5  6  1  0  0  0
  6  7  1  0  0  0
  7  8  1  0  0  0
  8  9  1  0  0  0
  9 10  2  0  0  0
 10 11  1  0  0  0
 11 12  2  0  0  0
 11 13  1  0  0  0
 13 14  1  0  0  0
 14 15  1  0  0  0
 15 16  1  0  0  0
  6 17  1  0  0  0
 17 18  1  0  0  0
 18 19  1  0  0  0
 19 20  1  0  0  0
 20 21  2  0  0  0
 17  2  1  0  0  0
 20  2  1  0  0  0
 15  5  1  0  0  0
 15  9  1  0  0  0
M  END
> <minimizedAffinity>
-5.79345

> <CNNscore>
0.5427978635

> <CNNaffinity>
7.3050661087

> <CNN_VS>
3.9651741982

> <CNNaffinity_variance>
0.5060476661

$$$$
[H]C1=C2C([H])([H])C([H])([H])[C@@]3([H])[C@]4([H])C([H])([H])C([H])([H])C(=O)[C@@]4(C([H])([H])[H])C([H])([H])C([H])([H])[C@]3([H])[C@@]2(C([H])([H])[H])C([H])([H])C([H])([H])C1=O


 21 24  0  0  0  0  0  0  0  0999 V2000
    8.5653   48.2158  128.7052 C   0  0  0  0  0  0  0  0  0  0  0  0
    7.8347   48.4472  130.0027 C   0  0  0  0  0  0  0  0  0  0  0  0
    8.7279   49.0508  131.0305 C   0  0  0  0  0  0  0  0  0  0  0  0
    9.4497   48.1213  131.9115 C   0  0  0  0  0  0  0  0  0  0  0  0
    9.1382   46.6843  131.8719 C   0  0  0  0  0  0  0  0  0  0  0  0
    8.3609   46.2080  130.6609 C   0  0  0  0  0  0  0  0  0  0  0  0
    7.7824   44.8397  130.8892 C   0  0  0  0  0  0  0  0  0  0  0  0
    8.7335   43.8382  131.4417 C   0  0  0  0  0  0  0  0  0  0  0  0
    9.7943   44.4175  132.3064 C   0  0  0  0  0  0  0  0  0  0  0  0
   10.2198   43.6195  133.2964 C   0  0  0  0  0  0  0  0  0  0  0  0
   11.2448   44.0341  134.2226 C   0  0  0  0  0  0  0  0  0  0  0  0
   11.4891   43.4434  135.2857 O   0  0  0  0  0  0  0  0  0  0  0  0
   12.0404   45.2316  133.8713 C   0  0  0  0  0  0  0  0  0  0  0  0
   11.0646   46.2511  133.3177 C   0  0  0  0  0  0  0  0  0  0  0  0
   10.3450   45.7789  132.0919 C   0  0  0  0  0  0  0  0  0  0  0  0
   11.2959   45.8248  130.9252 C   0  0  0  0  0  0  0  0  0  0  0  0
    7.2209   47.1799  130.5583 C   0  0  0  0  0  0  0  0  0  0  0  0
    6.1881   46.8570  129.5444 C   0  0  0  0  0  0  0  0  0  0  0  0
    5.6190   48.2430  129.2114 C   0  0  0  0  0  0  0  0  0  0  0  0
    6.6126   49.2162  129.7155 C   0  0  0  0  0  0  0  0  0  0  0  0
    6.4633   50.4011  129.8649 O   0  0  0  0  0  0  0  0  0  0  0  0
  2  1  1  0  0  0
  2  3  1  0  0  0
  3  4  1  0  0  0
  4  5  1  0  0  0
  5  6  1  0  0  0
  6  7  1  0  0  0
  7  8  1  0  0  0
  8  9  1  0  0  0
  9 10  2  0  0  0
 10 11  1  0  0  0
 11 12  2  0  0  0
 11 13  1  0  0  0
 13 14  1  0  0  0
 14 15  1  0  0  0
 15 16  1  0  0  0
  6 17  1  0  0  0
 17 18  1  0  0  0
 18 19  1  0  0  0
 19 20  1  0  0  0
 20 21  2  0  0  0
 17  2  1  0  0  0
 20  2  1  0  0  0
 15  5  1  0  0  0
 15  9  1  0  0  0
M  END
> <minimizedAffinity>
-8.96631

> <CNNscore>
0.5411657691

> <CNNaffinity>
7.2119035721

> <CNN_VS>
3.9028353691

> <CNNaffinity_variance>
0.1903988123

$$$$
[H]C1=C2C([H])([H])C([H])([H])[C@@]3([H])[C@]4([H])C([H])([H])C([H])([H])C(=O)[C@@]4(C([H])([H])[H])C([H])([H])C([H])([H])[C@]3([H])[C@@]2(C([H])([H])[H])C([H])([H])C([H])([H])C1=O


 21 24  0  0  0  0  0  0  0  0999 V2000
    6.3089   47.1119  130.0253 C   0  0  0  0  0  0  0  0  0  0  0  0
    7.6408   47.6128  129.5294 C   0  0  0  0  0  0  0  0  0  0  0  0
    8.4310   46.5216  128.8944 C   0  0  0  0  0  0  0  0  0  0  0  0
    9.3410   45.7660  129.7674 C   0  0  0  0  0  0  0  0  0  0  0  0
    9.5695   46.2143  131.1496 C   0  0  0  0  0  0  0  0  0  0  0  0
    8.5645   47.2071  131.6988 C   0  0  0  0  0  0  0  0  0  0  0  0
    9.0806   47.8711  132.9446 C   0  0  0  0  0  0  0  0  0  0  0  0
    9.6494   46.9464  133.9615 C   0  0  0  0  0  0  0  0  0  0  0  0
   10.2612   45.7172  133.3928 C   0  0  0  0  0  0  0  0  0  0  0  0
   11.2973   45.2243  134.0868 C   0  0  0  0  0  0  0  0  0  0  0  0
   11.9998   44.0365  133.6671 C   0  0  0  0  0  0  0  0  0  0  0  0
   13.0995   43.6913  134.1258 O   0  0  0  0  0  0  0  0  0  0  0  0
   11.3609   43.1936  132.6320 C   0  0  0  0  0  0  0  0  0  0  0  0
   10.7915   44.1411  131.5947 C   0  0  0  0  0  0  0  0  0  0  0  0
    9.7635   45.0791  132.1487 C   0  0  0  0  0  0  0  0  0  0  0  0
    8.4863   44.3154  132.3790 C   0  0  0  0  0  0  0  0  0  0  0  0
    8.4660   48.2526  130.6255 C   0  0  0  0  0  0  0  0  0  0  0  0
    7.6643   49.4526  130.9665 C   0  0  0  0  0  0  0  0  0  0  0  0
    7.1983   49.9319  129.5849 C   0  0  0  0  0  0  0  0  0  0  0  0
    7.4046   48.7862  128.6722 C   0  0  0  0  0  0  0  0  0  0  0  0
    7.3852   48.7986  127.4688 O   0  0  0  0  0  0  0  0  0  0  0  0
  2  1  1  0  0  0
  2  3  1  0  0  0
  3  4  1  0  0  0
  4  5  1  0  0  0
  5  6  1  0  0  0
  6  7  1  0  0  0
  7  8  1  0  0  0
  8  9  1  0  0  0
  9 10  2  0  0  0
 10 11  1  0  0  0
 11 12  2  0  0  0
 11 13  1  0  0  0
 13 14  1  0  0  0
 14 15  1  0  0  0
 15 16  1  0  0  0
  6 17  1  0  0  0
 17 18  1  0  0  0
 18 19  1  0  0  0
 19 20  1  0  0  0
 20 21  2  0  0  0
 17  2  1  0  0  0
 20  2  1  0  0  0
 15  5  1  0  0  0
 15  9  1  0  0  0
M  END
> <minimizedAffinity>
-8.34190

> <CNNscore>
0.5345612168

> <CNNaffinity>
7.2132019997

> <CNN_VS>
3.8558981419

> <CNNaffinity_variance>
0.1985408366

$$$$
[H]C1=C2C([H])([H])C([H])([H])[C@@]3([H])[C@]4([H])C([H])([H])C([H])([H])C(=O)[C@@]4(C([H])([H])[H])C([H])([H])C([H])([H])[C@]3([H])[C@@]2(C([H])([H])[H])C([H])([H])C([H])([H])C1=O


 21 24  0  0  0  0  0  0  0  0999 V2000
   10.4355   44.2664  133.8384 C   0  0  0  0  0  0  0  0  0  0  0  0
   11.0865   44.3377  132.4813 C   0  0  0  0  0  0  0  0  0  0  0  0
   11.8656   45.5964  132.3164 C   0  0  0  0  0  0  0  0  0  0  0  0
   11.1546   46.7470  131.7405 C   0  0  0  0  0  0  0  0  0  0  0  0
    9.7993   46.5722  131.1964 C   0  0  0  0  0  0  0  0  0  0  0  0
    9.0799   45.3022  131.6052 C   0  0  0  0  0  0  0  0  0  0  0  0
    7.8899   45.0433  130.7244 C   0  0  0  0  0  0  0  0  0  0  0  0
    6.9970   46.2140  130.5122 C   0  0  0  0  0  0  0  0  0  0  0  0
    7.6918   47.5268  130.5600 C   0  0  0  0  0  0  0  0  0  0  0  0
    7.1646   48.4781  129.7757 C   0  0  0  0  0  0  0  0  0  0  0  0
    7.7226   49.8066  129.7087 C   0  0  0  0  0  0  0  0  0  0  0  0
    7.4309   50.6299  128.8279 O   0  0  0  0  0  0  0  0  0  0  0  0
    8.6946   50.1939  130.7553 C   0  0  0  0  0  0  0  0  0  0  0  0
    9.6067   49.0005  130.9602 C   0  0  0  0  0  0  0  0  0  0  0  0
    8.8817   47.7705  131.4129 C   0  0  0  0  0  0  0  0  0  0  0  0
    8.5115   47.9337  132.8634 C   0  0  0  0  0  0  0  0  0  0  0  0
   10.0874   44.2184  131.3502 C   0  0  0  0  0  0  0  0  0  0  0  0
    9.5935   42.8292  131.5088 C   0  0  0  0  0  0  0  0  0  0  0  0
   10.8791   42.0685  131.8612 C   0  0  0  0  0  0  0  0  0  0  0  0
   11.8564   43.1005  132.2711 C   0  0  0  0  0  0  0  0  0  0  0  0
   13.0446   42.9673  132.4089 O   0  0  0  0  0  0  0  0  0  0  0  0
  2  1  1  0  0  0
  2  3  1  0  0  0
  3  4  1  0  0  0
  4  5  1  0  0  0
  5  6  1  0  0  0
  6  7  1  0  0  0
  7  8  1  0  0  0
  8  9  1  0  0  0
  9 10  2  0  0  0
 10 11  1  0  0  0
 11 12  2  0  0  0
 11 13  1  0  0  0
 13 14  1  0  0  0
 14 15  1  0  0  0
 15 16  1  0  0  0
  6 17  1  0  0  0
 17 18  1  0  0  0
 18 19  1  0  0  0
 19 20  1  0  0  0
 20 21  2  0  0  0
 17  2  1  0  0  0
 20  2  1  0  0  0
 15  5  1  0  0  0
 15  9  1  0  0  0
M  END
> <minimizedAffinity>
-9.38262

> <CNNscore>
0.5159835219

> <CNNaffinity>
7.4124855995

> <CNN_VS>
3.8247203827

> <CNNaffinity_variance>
0.4489982724

$$$$
[H]C1=C2C([H])([H])C([H])([H])[C@@]3([H])[C@]4([H])C([H])([H])C([H])([H])C(=O)[C@@]4(C([H])([H])[H])C([H])([H])C([H])([H])[C@]3([H])[C@@]2(C([H])([H])[H])C([H])([H])C([H])([H])C1=O


 21 24  0  0  0  0  0  0  0  0999 V2000
    9.3253   43.2781  132.9282 C   0  0  0  0  0  0  0  0  0  0  0  0
   10.3085   44.3886  133.1941 C   0  0  0  0  0  0  0  0  0  0  0  0
    9.6627   45.5305  133.8995 C   0  0  0  0  0  0  0  0  0  0  0  0
    9.0951   46.5949  133.0592 C   0  0  0  0  0  0  0  0  0  0  0  0
    9.3357   46.5885  131.6082 C   0  0  0  0  0  0  0  0  0  0  0  0
    9.8364   45.2820  131.0254 C   0  0  0  0  0  0  0  0  0  0  0  0
   10.3945   45.4808  129.6440 C   0  0  0  0  0  0  0  0  0  0  0  0
    9.5340   46.2735  128.7254 C   0  0  0  0  0  0  0  0  0  0  0  0
    8.6907   47.2903  129.4061 C   0  0  0  0  0  0  0  0  0  0  0  0
    8.4401   48.3946  128.6878 C   0  0  0  0  0  0  0  0  0  0  0  0
    7.6376   49.4753  129.2060 C   0  0  0  0  0  0  0  0  0  0  0  0
    7.5872   50.6018  128.6892 O   0  0  0  0  0  0  0  0  0  0  0  0
    6.8356   49.2100  130.4213 C   0  0  0  0  0  0  0  0  0  0  0  0
    7.7208   48.4101  131.3565 C   0  0  0  0  0  0  0  0  0  0  0  0
    8.1623   47.1001  130.7799 C   0  0  0  0  0  0  0  0  0  0  0  0
    7.0003   46.1427  130.8093 C   0  0  0  0  0  0  0  0  0  0  0  0
   10.9704   44.8941  131.9299 C   0  0  0  0  0  0  0  0  0  0  0  0
   11.7667   43.7201  131.4979 C   0  0  0  0  0  0  0  0  0  0  0  0
   12.3120   43.1921  132.8319 C   0  0  0  0  0  0  0  0  0  0  0  0
   11.4781   43.8172  133.8818 C   0  0  0  0  0  0  0  0  0  0  0  0
   11.7007   43.8568  135.0639 O   0  0  0  0  0  0  0  0  0  0  0  0
  2  1  1  0  0  0
  2  3  1  0  0  0
  3  4  1  0  0  0
  4  5  1  0  0  0
  5  6  1  0  0  0
  6  7  1  0  0  0
  7  8  1  0  0  0
  8  9  1  0  0  0
  9 10  2  0  0  0
 10 11  1  0  0  0
 11 12  2  0  0  0
 11 13  1  0  0  0
 13 14  1  0  0  0
 14 15  1  0  0  0
 15 16  1  0  0  0
  6 17  1  0  0  0
 17 18  1  0  0  0
 18 19  1  0  0  0
 19 20  1  0  0  0
 20 21  2  0  0  0
 17  2  1  0  0  0
 20  2  1  0  0  0
 15  5  1  0  0  0
 15  9  1  0  0  0
M  END
> <minimizedAffinity>
-7.99986

> <CNNscore>
0.4660056233

> <CNNaffinity>
7.1254920959

> <CNN_VS>
3.3205194473

> <CNNaffinity_variance>
0.2320114076

$$$$
[H]C1=C2C([H])([H])C([H])([H])[C@@]3([H])[C@]4([H])C([H])([H])C([H])([H])C(=O)[C@@]4(C([H])([H])[H])C([H])([H])C([H])([H])[C@]3([H])[C@@]2(C([H])([H])[H])C([H])([H])C([H])([H])C1=O


 21 24  0  0  0  0  0  0  0  0999 V2000
    6.1870   48.0687  129.9061 C   0  0  0  0  0  0  0  0  0  0  0  0
    7.3711   48.8935  129.4725 C   0  0  0  0  0  0  0  0  0  0  0  0
    7.9938   48.3445  128.2358 C   0  0  0  0  0  0  0  0  0  0  0  0
    9.0780   47.3681  128.4152 C   0  0  0  0  0  0  0  0  0  0  0  0
    9.6169   47.1117  129.7596 C   0  0  0  0  0  0  0  0  0  0  0  0
    8.7654   47.5928  130.9176 C   0  0  0  0  0  0  0  0  0  0  0  0
    9.5533   47.6219  132.1972 C   0  0  0  0  0  0  0  0  0  0  0  0
   10.3380   46.3906  132.4816 C   0  0  0  0  0  0  0  0  0  0  0  0
   10.8018   45.6697  131.2677 C   0  0  0  0  0  0  0  0  0  0  0  0
   11.9683   45.0221  131.4018 C   0  0  0  0  0  0  0  0  0  0  0  0
   12.5547   44.2750  130.3162 C   0  0  0  0  0  0  0  0  0  0  0  0
   13.7295   43.8768  130.3128 O   0  0  0  0  0  0  0  0  0  0  0  0
   11.6949   43.9747  129.1496 C   0  0  0  0  0  0  0  0  0  0  0  0
   10.9051   45.2356  128.8595 C   0  0  0  0  0  0  0  0  0  0  0  0
   10.0322   45.6643  129.9987 C   0  0  0  0  0  0  0  0  0  0  0  0
    8.8402   44.7466  130.0664 C   0  0  0  0  0  0  0  0  0  0  0  0
    8.4259   49.0091  130.5522 C   0  0  0  0  0  0  0  0  0  0  0  0
    7.7250   49.7939  131.5972 C   0  0  0  0  0  0  0  0  0  0  0  0
    6.9565   50.8276  130.7626 C   0  0  0  0  0  0  0  0  0  0  0  0
    6.9471   50.3004  129.3805 C   0  0  0  0  0  0  0  0  0  0  0  0
    6.6535   50.8930  128.3749 O   0  0  0  0  0  0  0  0  0  0  0  0
  2  1  1  0  0  0
  2  3  1  0  0  0
  3  4  1  0  0  0
  4  5  1  0  0  0
  5  6  1  0  0  0
  6  7  1  0  0  0
  7  8  1  0  0  0
  8  9  1  0  0  0
  9 10  2  0  0  0
 10 11  1  0  0  0
 11 12  2  0  0  0
 11 13  1  0  0  0
 13 14  1  0  0  0
 14 15  1  0  0  0
 15 16  1  0  0  0
  6 17  1  0  0  0
 17 18  1  0  0  0
 18 19  1  0  0  0
 19 20  1  0  0  0
 20 21  2  0  0  0
 17  2  1  0  0  0
 20  2  1  0  0  0
 15  5  1  0  0  0
 15  9  1  0  0  0
M  END
> <minimizedAffinity>
-5.36954

> <CNNscore>
0.4544985294

> <CNNaffinity>
6.7459840775

> <CNN_VS>
3.0660398006

> <CNNaffinity_variance>
0.3097401261

$$$$
[H]C1=C2C([H])([H])C([H])([H])[C@@]3([H])[C@]4([H])C([H])([H])C([H])([H])C(=O)[C@@]4(C([H])([H])[H])C([H])([H])C([H])([H])[C@]3([H])[C@@]2(C([H])([H])[H])C([H])([H])C([H])([H])C1=O


 21 24  0  0  0  0  0  0  0  0999 V2000
    8.3387   47.7834  133.5798 C   0  0  0  0  0  0  0  0  0  0  0  0
    9.5098   48.2052  132.7304 C   0  0  0  0  0  0  0  0  0  0  0  0
    9.0930   48.4840  131.3279 C   0  0  0  0  0  0  0  0  0  0  0  0
    9.1533   47.3607  130.3814 C   0  0  0  0  0  0  0  0  0  0  0  0
    9.7737   46.0914  130.7906 C   0  0  0  0  0  0  0  0  0  0  0  0
    9.9723   45.9012  132.2812 C   0  0  0  0  0  0  0  0  0  0  0  0
   10.9264   44.7747  132.5636 C   0  0  0  0  0  0  0  0  0  0  0  0
   10.6565   43.5182  131.8146 C   0  0  0  0  0  0  0  0  0  0  0  0
   10.0277   43.7251  130.4840 C   0  0  0  0  0  0  0  0  0  0  0  0
   10.3538   42.8164  129.5534 C   0  0  0  0  0  0  0  0  0  0  0  0
    9.8277   42.8767  128.2117 C   0  0  0  0  0  0  0  0  0  0  0  0
   10.2860   42.2199  127.2646 O   0  0  0  0  0  0  0  0  0  0  0  0
    8.6778   43.7759  127.9677 C   0  0  0  0  0  0  0  0  0  0  0  0
    8.9632   45.0572  128.7259 C   0  0  0  0  0  0  0  0  0  0  0  0
    9.1054   44.8533  130.2030 C   0  0  0  0  0  0  0  0  0  0  0  0
    7.7390   44.6248  130.7932 C   0  0  0  0  0  0  0  0  0  0  0  0
   10.6232   47.1795  132.7248 C   0  0  0  0  0  0  0  0  0  0  0  0
   11.0898   47.2106  134.1320 C   0  0  0  0  0  0  0  0  0  0  0  0
   11.0431   48.7105  134.4540 C   0  0  0  0  0  0  0  0  0  0  0  0
   10.1948   49.3195  133.4062 C   0  0  0  0  0  0  0  0  0  0  0  0
   10.0795   50.4895  133.1487 O   0  0  0  0  0  0  0  0  0  0  0  0
  2  1  1  0  0  0
  2  3  1  0  0  0
  3  4  1  0  0  0
  4  5  1  0  0  0
  5  6  1  0  0  0
  6  7  1  0  0  0
  7  8  1  0  0  0
  8  9  1  0  0  0
  9 10  2  0  0  0
 10 11  1  0  0  0
 11 12  2  0  0  0
 11 13  1  0  0  0
 13 14  1  0  0  0
 14 15  1  0  0  0
 15 16  1  0  0  0
  6 17  1  0  0  0
 17 18  1  0  0  0
 18 19  1  0  0  0
 19 20  1  0  0  0
 20 21  2  0  0  0
 17  2  1  0  0  0
 20  2  1  0  0  0
 15  5  1  0  0  0
 15  9  1  0  0  0
M  END
> <minimizedAffinity>
-1.58804

> <CNNscore>
0.4035684466

> <CNNaffinity>
6.9047074318

> <CNN_VS>
2.7865221500

> <CNNaffinity_variance>
0.9836539030

$$$$
[H]Oc1c([H])c([H])c([C@]2([H])Sc3c([H])c(O[H])c([H])c([H])c3O[C@@]2([H])c2c([H])c([H])c(OC([H])([H])C([H])([H])N3C([H])([H])C([H])([H])C([H])([H])C([H])([H])C3([H])[H])c([H])c2[H])c([H])c1[H]


 35 39  0  0  0  0  0  0  0  0999 V2000
    8.7626   46.0397  130.0627 C   0  0  0  0  0  0  0  0  0  0  0  0
    8.4030   44.3992  129.3597 S   0  0  0  0  0  0  0  0  0  0  0  0
    9.3509   43.2365  130.2773 C   0  0  0  0  0  0  0  0  0  0  0  0
    9.4764   41.9565  129.8502 C   0  0  0  0  0  0  0  0  0  0  0  0
   10.2278   41.0155  130.5639 C   0  0  0  0  0  0  0  0  0  0  0  0
   10.3766   39.7045  130.1569 O   0  0  0  0  0  0  0  0  0  0  0  0
   10.8498   41.4093  131.7261 C   0  0  0  0  0  0  0  0  0  0  0  0
   10.7360   42.6996  132.1762 C   0  0  0  0  0  0  0  0  0  0  0  0
    9.9779   43.6057  131.4350 C   0  0  0  0  0  0  0  0  0  0  0  0
    9.8746   44.8756  131.8926 O   0  0  0  0  0  0  0  0  0  0  0  0
    8.9470   45.8629  131.5311 C   0  0  0  0  0  0  0  0  0  0  0  0
   11.1799   39.5198  129.5413 H   0  0  0  0  0  0  0  0  0  0  0  0
    4.6446   49.8082  128.9827 O   0  0  0  0  0  0  0  0  0  0  0  0
    5.6569   48.8672  129.2520 C   0  0  0  0  0  0  0  0  0  0  0  0
    5.3688   47.5520  129.5377 C   0  0  0  0  0  0  0  0  0  0  0  0
    6.3589   46.6291  129.8017 C   0  0  0  0  0  0  0  0  0  0  0  0
    7.6860   46.9979  129.7880 C   0  0  0  0  0  0  0  0  0  0  0  0
    7.9877   48.3241  129.5007 C   0  0  0  0  0  0  0  0  0  0  0  0
    6.9875   49.2286  129.2403 C   0  0  0  0  0  0  0  0  0  0  0  0
    4.3160   49.9577  128.0175 H   0  0  0  0  0  0  0  0  0  0  0  0
    9.4790   47.1449  132.1104 C   0  0  0  0  0  0  0  0  0  0  0  0
   10.8163   47.3226  132.3735 C   0  0  0  0  0  0  0  0  0  0  0  0
   11.3053   48.4930  132.8963 C   0  0  0  0  0  0  0  0  0  0  0  0
   10.4621   49.5865  133.1953 C   0  0  0  0  0  0  0  0  0  0  0  0
    9.1298   49.3948  132.9290 C   0  0  0  0  0  0  0  0  0  0  0  0
    8.6500   48.1992  132.3974 C   0  0  0  0  0  0  0  0  0  0  0  0
   11.0208   50.7260  133.7181 O   0  0  0  0  0  0  0  0  0  0  0  0
   11.4034   50.9924  134.9991 C   0  0  0  0  0  0  0  0  0  0  0  0
   12.8897   51.1320  135.2540 C   0  0  0  0  0  0  0  0  0  0  0  0
   13.3220   52.3817  134.7297 N   0  0  0  0  0  0  0  0  0  0  0  0
   13.0540   53.5453  135.4888 C   0  0  0  0  0  0  0  0  0  0  0  0
   12.6898   54.6585  134.5058 C   0  0  0  0  0  0  0  0  0  0  0  0
   13.7004   54.6613  133.3843 C   0  0  0  0  0  0  0  0  0  0  0  0
   14.9260   53.8233  133.7024 C   0  0  0  0  0  0  0  0  0  0  0  0
   14.5060   52.3906  133.9522 C   0  0  0  0  0  0  0  0  0  0  0  0
 13 14  1  0  0  0
 14 15  2  0  0  0
 15 16  1  0  0  0
 16 17  2  0  0  0
 17 18  1  0  0  0
 18 19  2  0  0  0
 17  1  1  0  0  0
  1  2  1  0  0  0
  2  3  1  0  0  0
  3  4  2  0  0  0
  4  5  1  0  0  0
  5  6  1  0  0  0
  5  7  2  0  0  0
  7  8  1  0  0  0
  8  9  2  0  0  0
  9 10  1  0  0  0
 10 11  1  0  0  0
 11 21  1  0  0  0
 21 22  2  0  0  0
 22 23  1  0  0  0
 23 24  2  0  0  0
 24 27  1  0  0  0
 27 28  1  0  0  0
 28 29  1  0  0  0
 29 30  1  0  0  0
 30 31  1  0  0  0
 31 32  1  0  0  0
 32 33  1  0  0  0
 33 34  1  0  0  0
 34 35  1  0  0  0
 24 25  1  0  0  0
 25 26  2  0  0  0
 19 14  1  0  0  0
 11  1  1  0  0  0
 26 21  1  0  0  0
  9  3  1  0  0  0
 35 30  1  0  0  0
 13 20  1  0  0  0
  6 12  1  0  0  0
M  END
> <minimizedAffinity>
25.14411

> <CNNscore>
0.4644277394

> <CNNaffinity>
7.6662015915

> <CNN_VS>
3.5603966713

> <CNNaffinity_variance>
1.8322579861

$$$$
[H]Oc1c([H])c([H])c([C@]2([H])Sc3c([H])c(O[H])c([H])c([H])c3O[C@@]2([H])c2c([H])c([H])c(OC([H])([H])C([H])([H])N3C([H])([H])C([H])([H])C([H])([H])C([H])([H])C3([H])[H])c([H])c2[H])c([H])c1[H]


 35 39  0  0  0  0  0  0  0  0999 V2000
    9.1151   44.8354  130.2083 C   0  0  0  0  0  0  0  0  0  0  0  0
    9.0091   43.1648  129.4924 S   0  0  0  0  0  0  0  0  0  0  0  0
    9.9268   42.1015  130.5505 C   0  0  0  0  0  0  0  0  0  0  0  0
   10.2280   40.8370  130.1671 C   0  0  0  0  0  0  0  0  0  0  0  0
   10.9591   39.9748  130.9926 C   0  0  0  0  0  0  0  0  0  0  0  0
   11.2834   38.6818  130.6328 O   0  0  0  0  0  0  0  0  0  0  0  0
   11.3772   40.4314  132.2211 C   0  0  0  0  0  0  0  0  0  0  0  0
   11.0835   41.7074  132.6287 C   0  0  0  0  0  0  0  0  0  0  0  0
   10.3527   42.5340  131.7757 C   0  0  0  0  0  0  0  0  0  0  0  0
   10.0702   43.7907  132.1925 O   0  0  0  0  0  0  0  0  0  0  0  0
    9.1129   44.6840  131.6912 C   0  0  0  0  0  0  0  0  0  0  0  0
   12.1770   38.5709  130.1352 H   0  0  0  0  0  0  0  0  0  0  0  0
    4.8392   48.1477  128.4559 O   0  0  0  0  0  0  0  0  0  0  0  0
    5.8926   47.3250  128.8990 C   0  0  0  0  0  0  0  0  0  0  0  0
    5.8134   46.6134  130.0745 C   0  0  0  0  0  0  0  0  0  0  0  0
    6.8440   45.8072  130.5099 C   0  0  0  0  0  0  0  0  0  0  0  0
    8.0017   45.6861  129.7734 C   0  0  0  0  0  0  0  0  0  0  0  0
    8.0918   46.4009  128.5846 C   0  0  0  0  0  0  0  0  0  0  0  0
    7.0545   47.1987  128.1675 C   0  0  0  0  0  0  0  0  0  0  0  0
    4.0974   47.7640  127.8524 H   0  0  0  0  0  0  0  0  0  0  0  0
    9.4392   46.0135  132.3143 C   0  0  0  0  0  0  0  0  0  0  0  0
   10.6269   46.6592  132.0663 C   0  0  0  0  0  0  0  0  0  0  0  0
   10.9249   47.8747  132.6286 C   0  0  0  0  0  0  0  0  0  0  0  0
   10.0273   48.5355  133.4968 C   0  0  0  0  0  0  0  0  0  0  0  0
    8.8464   47.8789  133.7365 C   0  0  0  0  0  0  0  0  0  0  0  0
    8.5597   46.6446  133.1566 C   0  0  0  0  0  0  0  0  0  0  0  0
   10.3928   49.7488  134.0240 O   0  0  0  0  0  0  0  0  0  0  0  0
    9.7964   50.9668  133.8860 C   0  0  0  0  0  0  0  0  0  0  0  0
    9.8833   51.6205  132.5227 C   0  0  0  0  0  0  0  0  0  0  0  0
    9.2181   50.7883  131.5800 N   0  0  0  0  0  0  0  0  0  0  0  0
    8.0578   51.2985  130.9511 C   0  0  0  0  0  0  0  0  0  0  0  0
    7.0657   50.1428  130.8158 C   0  0  0  0  0  0  0  0  0  0  0  0
    7.7974   48.9403  130.2700 C   0  0  0  0  0  0  0  0  0  0  0  0
    9.1671   49.2931  129.7178 C   0  0  0  0  0  0  0  0  0  0  0  0
   10.0133   49.8982  130.8175 C   0  0  0  0  0  0  0  0  0  0  0  0
 13 14  1  0  0  0
 14 15  2  0  0  0
 15 16  1  0  0  0
 16 17  2  0  0  0
 17 18  1  0  0  0
 18 19  2  0  0  0
 17  1  1  0  0  0
  1  2  1  0  0  0
  2  3  1  0  0  0
  3  4  2  0  0  0
  4  5  1  0  0  0
  5  6  1  0  0  0
  5  7  2  0  0  0
  7  8  1  0  0  0
  8  9  2  0  0  0
  9 10  1  0  0  0
 10 11  1  0  0  0
 11 21  1  0  0  0
 21 22  2  0  0  0
 22 23  1  0  0  0
 23 24  2  0  0  0
 24 27  1  0  0  0
 27 28  1  0  0  0
 28 29  1  0  0  0
 29 30  1  0  0  0
 30 31  1  0  0  0
 31 32  1  0  0  0
 32 33  1  0  0  0
 33 34  1  0  0  0
 34 35  1  0  0  0
 24 25  1  0  0  0
 25 26  2  0  0  0
 19 14  1  0  0  0
 11  1  1  0  0  0
 26 21  1  0  0  0
  9  3  1  0  0  0
 35 30  1  0  0  0
 13 20  1  0  0  0
  6 12  1  0  0  0
M  END
> <minimizedAffinity>
14.29145

> <CNNscore>
0.4450064898

> <CNNaffinity>
7.3851737976

> <CNN_VS>
3.2864503860

> <CNNaffinity_variance>
1.0556910038

$$$$
[H]Oc1c([H])c([H])c([C@]2([H])Sc3c([H])c(O[H])c([H])c([H])c3O[C@@]2([H])c2c([H])c([H])c(OC([H])([H])C([H])([H])N3C([H])([H])C([H])([H])C([H])([H])C([H])([H])C3([H])[H])c([H])c2[H])c([H])c1[H]


 35 39  0  0  0  0  0  0  0  0999 V2000
   10.0700   46.8974  130.9749 C   0  0  0  0  0  0  0  0  0  0  0  0
    9.5947   48.5157  131.6603 S   0  0  0  0  0  0  0  0  0  0  0  0
    8.4008   49.1986  130.5646 C   0  0  0  0  0  0  0  0  0  0  0  0
    8.0211   50.4947  130.6770 C   0  0  0  0  0  0  0  0  0  0  0  0
    7.0742   51.0591  129.8143 C   0  0  0  0  0  0  0  0  0  0  0  0
    6.6657   52.3752  129.9007 O   0  0  0  0  0  0  0  0  0  0  0  0
    6.5214   50.2706  128.8318 C   0  0  0  0  0  0  0  0  0  0  0  0
    6.8915   48.9567  128.7003 C   0  0  0  0  0  0  0  0  0  0  0  0
    7.8382   48.4338  129.5808 C   0  0  0  0  0  0  0  0  0  0  0  0
    8.1929   47.1350  129.4385 O   0  0  0  0  0  0  0  0  0  0  0  0
    8.8520   46.3029  130.3545 C   0  0  0  0  0  0  0  0  0  0  0  0
    7.2138   53.0469  129.3468 H   0  0  0  0  0  0  0  0  0  0  0  0
   12.0997   43.4400  135.0063 O   0  0  0  0  0  0  0  0  0  0  0  0
   11.6069   44.2967  134.0033 C   0  0  0  0  0  0  0  0  0  0  0  0
   12.4047   44.7467  132.9759 C   0  0  0  0  0  0  0  0  0  0  0  0
   11.9238   45.5858  131.9929 C   0  0  0  0  0  0  0  0  0  0  0  0
   10.6123   46.0067  132.0070 C   0  0  0  0  0  0  0  0  0  0  0  0
    9.7982   45.5580  133.0405 C   0  0  0  0  0  0  0  0  0  0  0  0
   10.2955   44.7225  134.0106 C   0  0  0  0  0  0  0  0  0  0  0  0
   12.0507   42.4175  134.8879 H   0  0  0  0  0  0  0  0  0  0  0  0
    9.2535   45.0829  129.5718 C   0  0  0  0  0  0  0  0  0  0  0  0
    8.5854   43.8882  129.6966 C   0  0  0  0  0  0  0  0  0  0  0  0
    8.9455   42.7754  128.9796 C   0  0  0  0  0  0  0  0  0  0  0  0
   10.0258   42.7915  128.0692 C   0  0  0  0  0  0  0  0  0  0  0  0
   10.6845   43.9899  127.9557 C   0  0  0  0  0  0  0  0  0  0  0  0
   10.3050   45.1109  128.6916 C   0  0  0  0  0  0  0  0  0  0  0  0
   10.3305   41.6400  127.3873 O   0  0  0  0  0  0  0  0  0  0  0  0
   10.1597   40.3410  127.7638 C   0  0  0  0  0  0  0  0  0  0  0  0
   11.0258   39.3089  127.0724 C   0  0  0  0  0  0  0  0  0  0  0  0
   10.4696   39.0382  125.7914 N   0  0  0  0  0  0  0  0  0  0  0  0
   11.2137   38.2221  124.9068 C   0  0  0  0  0  0  0  0  0  0  0  0
   11.0338   38.7915  123.4991 C   0  0  0  0  0  0  0  0  0  0  0  0
    9.5667   39.0686  123.2747 C   0  0  0  0  0  0  0  0  0  0  0  0
    8.6842   38.4233  124.3284 C   0  0  0  0  0  0  0  0  0  0  0  0
    9.0589   38.9561  125.6948 C   0  0  0  0  0  0  0  0  0  0  0  0
 13 14  1  0  0  0
 14 15  2  0  0  0
 15 16  1  0  0  0
 16 17  2  0  0  0
 17 18  1  0  0  0
 18 19  2  0  0  0
 17  1  1  0  0  0
  1  2  1  0  0  0
  2  3  1  0  0  0
  3  4  2  0  0  0
  4  5  1  0  0  0
  5  6  1  0  0  0
  5  7  2  0  0  0
  7  8  1  0  0  0
  8  9  2  0  0  0
  9 10  1  0  0  0
 10 11  1  0  0  0
 11 21  1  0  0  0
 21 22  2  0  0  0
 22 23  1  0  0  0
 23 24  2  0  0  0
 24 27  1  0  0  0
 27 28  1  0  0  0
 28 29  1  0  0  0
 29 30  1  0  0  0
 30 31  1  0  0  0
 31 32  1  0  0  0
 32 33  1  0  0  0
 33 34  1  0  0  0
 34 35  1  0  0  0
 24 25  1  0  0  0
 25 26  2  0  0  0
 19 14  1  0  0  0
 11  1  1  0  0  0
 26 21  1  0  0  0
  9  3  1  0  0  0
 35 30  1  0  0  0
 13 20  1  0  0  0
  6 12  1  0  0  0
M  END
> <minimizedAffinity>
12.46074

> <CNNscore>
0.4250083566

> <CNNaffinity>
7.5707750320

> <CNN_VS>
3.2176425457

> <CNNaffinity_variance>
0.7615318298

$$$$
[H]Oc1c([H])c([H])c([C@]2([H])Sc3c([H])c(O[H])c([H])c([H])c3O[C@@]2([H])c2c([H])c([H])c(OC([H])([H])C([H])([H])N3C([H])([H])C([H])([H])C([H])([H])C([H])([H])C3([H])[H])c([H])c2[H])c([H])c1[H]


 35 39  0  0  0  0  0  0  0  0999 V2000
   10.3843   44.3432  130.6900 C   0  0  0  0  0  0  0  0  0  0  0  0
   10.5724   42.5574  130.9906 S   0  0  0  0  0  0  0  0  0  0  0  0
    9.8185   42.2234  132.5437 C   0  0  0  0  0  0  0  0  0  0  0  0
    9.9929   41.0256  133.1532 C   0  0  0  0  0  0  0  0  0  0  0  0
    9.4039   40.7395  134.3904 C   0  0  0  0  0  0  0  0  0  0  0  0
    9.5615   39.5306  135.0387 O   0  0  0  0  0  0  0  0  0  0  0  0
    8.6308   41.7042  134.9940 C   0  0  0  0  0  0  0  0  0  0  0  0
    8.4414   42.9230  134.3948 C   0  0  0  0  0  0  0  0  0  0  0  0
    9.0462   43.1672  133.1620 C   0  0  0  0  0  0  0  0  0  0  0  0
    8.8493   44.3749  132.5830 O   0  0  0  0  0  0  0  0  0  0  0  0
    9.0643   44.7510  131.2495 C   0  0  0  0  0  0  0  0  0  0  0  0
   10.3635   39.4729  135.6804 H   0  0  0  0  0  0  0  0  0  0  0  0
   10.6224   45.5541  125.1400 O   0  0  0  0  0  0  0  0  0  0  0  0
   10.5724   45.2602  126.5162 C   0  0  0  0  0  0  0  0  0  0  0  0
   11.4782   45.7917  127.4059 C   0  0  0  0  0  0  0  0  0  0  0  0
   11.4307   45.5050  128.7539 C   0  0  0  0  0  0  0  0  0  0  0  0
   10.4628   44.6663  129.2610 C   0  0  0  0  0  0  0  0  0  0  0  0
    9.5432   44.1241  128.3707 C   0  0  0  0  0  0  0  0  0  0  0  0
    9.6067   44.4216  127.0314 C   0  0  0  0  0  0  0  0  0  0  0  0
   10.1050   46.3605  124.7606 H   0  0  0  0  0  0  0  0  0  0  0  0
    8.9759   46.2524  131.2366 C   0  0  0  0  0  0  0  0  0  0  0  0
    8.4701   46.9589  132.3017 C   0  0  0  0  0  0  0  0  0  0  0  0
    8.3937   48.3287  132.2952 C   0  0  0  0  0  0  0  0  0  0  0  0
    8.8309   49.0953  131.1919 C   0  0  0  0  0  0  0  0  0  0  0  0
    9.3320   48.3772  130.1354 C   0  0  0  0  0  0  0  0  0  0  0  0
    9.4028   46.9856  130.1588 C   0  0  0  0  0  0  0  0  0  0  0  0
    8.7226   50.4621  131.2545 O   0  0  0  0  0  0  0  0  0  0  0  0
    8.1162   51.3222  130.3880 C   0  0  0  0  0  0  0  0  0  0  0  0
    6.6246   51.1533  130.1880 C   0  0  0  0  0  0  0  0  0  0  0  0
    6.3945   49.9086  129.5388 N   0  0  0  0  0  0  0  0  0  0  0  0
    7.4450   49.3637  128.7631 C   0  0  0  0  0  0  0  0  0  0  0  0
    6.8143   48.7190  127.5282 C   0  0  0  0  0  0  0  0  0  0  0  0
    5.6392   47.8798  127.9692 C   0  0  0  0  0  0  0  0  0  0  0  0
    5.6176   47.6508  129.4700 C   0  0  0  0  0  0  0  0  0  0  0  0
    5.5360   48.9839  130.1823 C   0  0  0  0  0  0  0  0  0  0  0  0
 13 14  1  0  0  0
 14 15  2  0  0  0
 15 16  1  0  0  0
 16 17  2  0  0  0
 17 18  1  0  0  0
 18 19  2  0  0  0
 17  1  1  0  0  0
  1  2  1  0  0  0
  2  3  1  0  0  0
  3  4  2  0  0  0
  4  5  1  0  0  0
  5  6  1  0  0  0
  5  7  2  0  0  0
  7  8  1  0  0  0
  8  9  2  0  0  0
  9 10  1  0  0  0
 10 11  1  0  0  0
 11 21  1  0  0  0
 21 22  2  0  0  0
 22 23  1  0  0  0
 23 24  2  0  0  0
 24 27  1  0  0  0
 27 28  1  0  0  0
 28 29  1  0  0  0
 29 30  1  0  0  0
 30 31  1  0  0  0
 31 32  1  0  0  0
 32 33  1  0  0  0
 33 34  1  0  0  0
 34 35  1  0  0  0
 24 25  1  0  0  0
 25 26  2  0  0  0
 19 14  1  0  0  0
 11  1  1  0  0  0
 26 21  1  0  0  0
  9  3  1  0  0  0
 35 30  1  0  0  0
 13 20  1  0  0  0
  6 12  1  0  0  0
M  END
> <minimizedAffinity>
20.81206

> <CNNscore>
0.4071720839

> <CNNaffinity>
7.4947652817

> <CNN_VS>
3.0516591072

> <CNNaffinity_variance>
1.7115691900

$$$$
[H]Oc1c([H])c([H])c([C@]2([H])Sc3c([H])c(O[H])c([H])c([H])c3O[C@@]2([H])c2c([H])c([H])c(OC([H])([H])C([H])([H])N3C([H])([H])C([H])([H])C([H])([H])C([H])([H])C3([H])[H])c([H])c2[H])c([H])c1[H]


 35 39  0  0  0  0  0  0  0  0999 V2000
    8.6525   46.1916  131.9000 C   0  0  0  0  0  0  0  0  0  0  0  0
    8.7401   46.8081  133.6108 S   0  0  0  0  0  0  0  0  0  0  0  0
    9.6971   45.6458  134.5193 C   0  0  0  0  0  0  0  0  0  0  0  0
    9.7529   45.7036  135.8721 C   0  0  0  0  0  0  0  0  0  0  0  0
   10.5066   44.7873  136.6150 C   0  0  0  0  0  0  0  0  0  0  0  0
   10.5846   44.8174  137.9932 O   0  0  0  0  0  0  0  0  0  0  0  0
   11.2043   43.8082  135.9462 C   0  0  0  0  0  0  0  0  0  0  0  0
   11.1615   43.7315  134.5777 C   0  0  0  0  0  0  0  0  0  0  0  0
   10.3984   44.6642  133.8757 C   0  0  0  0  0  0  0  0  0  0  0  0
   10.3667   44.5756  132.5252 O   0  0  0  0  0  0  0  0  0  0  0  0
    9.9588   45.5419  131.5947 C   0  0  0  0  0  0  0  0  0  0  0  0
    9.8726   44.2654  138.4898 H   0  0  0  0  0  0  0  0  0  0  0  0
    7.5026   50.3625  128.2113 O   0  0  0  0  0  0  0  0  0  0  0  0
    7.7981   49.3314  129.1236 C   0  0  0  0  0  0  0  0  0  0  0  0
    9.0906   49.0386  129.4952 C   0  0  0  0  0  0  0  0  0  0  0  0
    9.3818   48.0292  130.3885 C   0  0  0  0  0  0  0  0  0  0  0  0
    8.3757   47.2709  130.9455 C   0  0  0  0  0  0  0  0  0  0  0  0
    7.0667   47.5585  130.5766 C   0  0  0  0  0  0  0  0  0  0  0  0
    6.7967   48.5680  129.6853 C   0  0  0  0  0  0  0  0  0  0  0  0
    7.3313   51.3216  128.5470 H   0  0  0  0  0  0  0  0  0  0  0  0
    9.8427   44.8132  130.2840 C   0  0  0  0  0  0  0  0  0  0  0  0
    8.6683   44.2213  129.8842 C   0  0  0  0  0  0  0  0  0  0  0  0
    8.5578   43.5611  128.6867 C   0  0  0  0  0  0  0  0  0  0  0  0
    9.6459   43.4503  127.7923 C   0  0  0  0  0  0  0  0  0  0  0  0
   10.8120   44.0445  128.2047 C   0  0  0  0  0  0  0  0  0  0  0  0
   10.9068   44.7116  129.4246 C   0  0  0  0  0  0  0  0  0  0  0  0
    9.4630   42.7736  126.6123 O   0  0  0  0  0  0  0  0  0  0  0  0
    9.3617   41.4323  126.3912 C   0  0  0  0  0  0  0  0  0  0  0  0
   10.2666   40.5341  127.2084 C   0  0  0  0  0  0  0  0  0  0  0  0
   11.0316   39.7325  126.3164 N   0  0  0  0  0  0  0  0  0  0  0  0
   10.3771   39.1978  125.1816 C   0  0  0  0  0  0  0  0  0  0  0  0
   10.9268   37.7884  124.9586 C   0  0  0  0  0  0  0  0  0  0  0  0
   12.4328   37.8376  125.0530 C   0  0  0  0  0  0  0  0  0  0  0  0
   12.9732   39.2558  125.0090 C   0  0  0  0  0  0  0  0  0  0  0  0
   12.4043   40.0482  126.1665 C   0  0  0  0  0  0  0  0  0  0  0  0
 13 14  1  0  0  0
 14 15  2  0  0  0
 15 16  1  0  0  0
 16 17  2  0  0  0
 17 18  1  0  0  0
 18 19  2  0  0  0
 17  1  1  0  0  0
  1  2  1  0  0  0
  2  3  1  0  0  0
  3  4  2  0  0  0
  4  5  1  0  0  0
  5  6  1  0  0  0
  5  7  2  0  0  0
  7  8  1  0  0  0
  8  9  2  0  0  0
  9 10  1  0  0  0
 10 11  1  0  0  0
 11 21  1  0  0  0
 21 22  2  0  0  0
 22 23  1  0  0  0
 23 24  2  0  0  0
 24 27  1  0  0  0
 27 28  1  0  0  0
 28 29  1  0  0  0
 29 30  1  0  0  0
 30 31  1  0  0  0
 31 32  1  0  0  0
 32 33  1  0  0  0
 33 34  1  0  0  0
 34 35  1  0  0  0
 24 25  1  0  0  0
 25 26  2  0  0  0
 19 14  1  0  0  0
 11  1  1  0  0  0
 26 21  1  0  0  0
  9  3  1  0  0  0
 35 30  1  0  0  0
 13 20  1  0  0  0
  6 12  1  0  0  0
M  END
> <minimizedAffinity>
19.94309

> <CNNscore>
0.4018688500

> <CNNaffinity>
7.5241270065

> <CNN_VS>
3.0237121582

> <CNNaffinity_variance>
1.0651363134

$$$$
[H]Oc1c([H])c([H])c([C@]2([H])Sc3c([H])c(O[H])c([H])c([H])c3O[C@@]2([H])c2c([H])c([H])c(OC([H])([H])C([H])([H])N3C([H])([H])C([H])([H])C([H])([H])C([H])([H])C3([H])[H])c([H])c2[H])c([H])c1[H]


 35 39  0  0  0  0  0  0  0  0999 V2000
    9.2166   46.2987  129.4498 C   0  0  0  0  0  0  0  0  0  0  0  0
    9.3654   45.4615  127.8399 S   0  0  0  0  0  0  0  0  0  0  0  0
    9.5273   43.7431  128.1759 C   0  0  0  0  0  0  0  0  0  0  0  0
    9.8851   42.8780  127.1960 C   0  0  0  0  0  0  0  0  0  0  0  0
   10.0218   41.5068  127.4421 C   0  0  0  0  0  0  0  0  0  0  0  0
   10.3851   40.5987  126.4675 O   0  0  0  0  0  0  0  0  0  0  0  0
    9.7849   41.0358  128.7128 C   0  0  0  0  0  0  0  0  0  0  0  0
    9.4220   41.8938  129.7191 C   0  0  0  0  0  0  0  0  0  0  0  0
    9.2969   43.2527  129.4313 C   0  0  0  0  0  0  0  0  0  0  0  0
    8.9375   44.0869  130.4351 O   0  0  0  0  0  0  0  0  0  0  0  0
    8.4435   45.3963  130.3497 C   0  0  0  0  0  0  0  0  0  0  0  0
   11.3959   40.4352  126.3684 H   0  0  0  0  0  0  0  0  0  0  0  0
    6.7051   51.3799  129.0038 O   0  0  0  0  0  0  0  0  0  0  0  0
    7.3182   50.1168  129.1099 C   0  0  0  0  0  0  0  0  0  0  0  0
    6.7019   48.9702  128.6626 C   0  0  0  0  0  0  0  0  0  0  0  0
    7.3008   47.7324  128.7658 C   0  0  0  0  0  0  0  0  0  0  0  0
    8.5518   47.6008  129.3273 C   0  0  0  0  0  0  0  0  0  0  0  0
    9.1828   48.7528  129.7824 C   0  0  0  0  0  0  0  0  0  0  0  0
    8.5700   49.9769  129.6708 C   0  0  0  0  0  0  0  0  0  0  0  0
    6.8489   51.9595  128.1640 H   0  0  0  0  0  0  0  0  0  0  0  0
    8.5047   45.9407  131.7504 C   0  0  0  0  0  0  0  0  0  0  0  0
    8.1311   45.1884  132.8384 C   0  0  0  0  0  0  0  0  0  0  0  0
    8.1915   45.6802  134.1178 C   0  0  0  0  0  0  0  0  0  0  0  0
    8.6419   46.9908  134.3930 C   0  0  0  0  0  0  0  0  0  0  0  0
    9.0102   47.7308  133.2977 C   0  0  0  0  0  0  0  0  0  0  0  0
    8.9429   47.2153  132.0047 C   0  0  0  0  0  0  0  0  0  0  0  0
    8.6742   47.4164  135.6975 O   0  0  0  0  0  0  0  0  0  0  0  0
    9.5677   47.1180  136.6827 C   0  0  0  0  0  0  0  0  0  0  0  0
   10.0666   45.6894  136.7441 C   0  0  0  0  0  0  0  0  0  0  0  0
   10.8035   45.4175  135.5581 N   0  0  0  0  0  0  0  0  0  0  0  0
   11.8029   46.3426  135.1743 C   0  0  0  0  0  0  0  0  0  0  0  0
   11.7631   46.4520  133.6496 C   0  0  0  0  0  0  0  0  0  0  0  0
   11.7081   45.0600  133.0674 C   0  0  0  0  0  0  0  0  0  0  0  0
   12.0321   43.9870  134.0916 C   0  0  0  0  0  0  0  0  0  0  0  0
   11.0366   44.0595  135.2297 C   0  0  0  0  0  0  0  0  0  0  0  0
 13 14  1  0  0  0
 14 15  2  0  0  0
 15 16  1  0  0  0
 16 17  2  0  0  0
 17 18  1  0  0  0
 18 19  2  0  0  0
 17  1  1  0  0  0
  1  2  1  0  0  0
  2  3  1  0  0  0
  3  4  2  0  0  0
  4  5  1  0  0  0
  5  6  1  0  0  0
  5  7  2  0  0  0
  7  8  1  0  0  0
  8  9  2  0  0  0
  9 10  1  0  0  0
 10 11  1  0  0  0
 11 21  1  0  0  0
 21 22  2  0  0  0
 22 23  1  0  0  0
 23 24  2  0  0  0
 24 27  1  0  0  0
 27 28  1  0  0  0
 28 29  1  0  0  0
 29 30  1  0  0  0
 30 31  1  0  0  0
 31 32  1  0  0  0
 32 33  1  0  0  0
 33 34  1  0  0  0
 34 35  1  0  0  0
 24 25  1  0  0  0
 25 26  2  0  0  0
 19 14  1  0  0  0
 11  1  1  0  0  0
 26 21  1  0  0  0
  9  3  1  0  0  0
 35 30  1  0  0  0
 13 20  1  0  0  0
  6 12  1  0  0  0
M  END
> <minimizedAffinity>
10.03719

> <CNNscore>
0.3895369172

> <CNNaffinity>
7.6902685165

> <CNN_VS>
2.9956433773

> <CNNaffinity_variance>
1.0669181347

$$$$
[H]Oc1c([H])c([H])c([C@]2([H])Sc3c([H])c(O[H])c([H])c([H])c3O[C@@]2([H])c2c([H])c([H])c(OC([H])([H])C([H])([H])N3C([H])([H])C([H])([H])C([H])([H])C([H])([H])C3([H])[H])c([H])c2[H])c([H])c1[H]


 35 39  0  0  0  0  0  0  0  0999 V2000
   10.4118   45.5353  132.8789 C   0  0  0  0  0  0  0  0  0  0  0  0
   10.9475   43.7967  132.9498 S   0  0  0  0  0  0  0  0  0  0  0  0
   10.4122   43.0407  131.4551 C   0  0  0  0  0  0  0  0  0  0  0  0
   10.4591   41.6945  131.3062 C   0  0  0  0  0  0  0  0  0  0  0  0
   10.0360   41.0720  130.1260 C   0  0  0  0  0  0  0  0  0  0  0  0
   10.0697   39.7040  129.9416 O   0  0  0  0  0  0  0  0  0  0  0  0
    9.5632   41.8545  129.0980 C   0  0  0  0  0  0  0  0  0  0  0  0
    9.5071   43.2185  129.2277 C   0  0  0  0  0  0  0  0  0  0  0  0
    9.9385   43.7986  130.4204 C   0  0  0  0  0  0  0  0  0  0  0  0
    9.8774   45.1463  130.5329 O   0  0  0  0  0  0  0  0  0  0  0  0
   10.5234   45.9768  131.4596 C   0  0  0  0  0  0  0  0  0  0  0  0
    9.2211   39.1971  130.2267 H   0  0  0  0  0  0  0  0  0  0  0  0
   13.4897   48.8969  136.2776 O   0  0  0  0  0  0  0  0  0  0  0  0
   12.7362   48.0580  135.4343 C   0  0  0  0  0  0  0  0  0  0  0  0
   13.2740   46.9243  134.8685 C   0  0  0  0  0  0  0  0  0  0  0  0
   12.5375   46.1017  134.0424 C   0  0  0  0  0  0  0  0  0  0  0  0
   11.2224   46.3912  133.7523 C   0  0  0  0  0  0  0  0  0  0  0  0
   10.6698   47.5341  134.3186 C   0  0  0  0  0  0  0  0  0  0  0  0
   11.4194   48.3411  135.1390 C   0  0  0  0  0  0  0  0  0  0  0  0
   13.5087   48.7315  137.2945 H   0  0  0  0  0  0  0  0  0  0  0  0
    9.8674   47.3228  131.3180 C   0  0  0  0  0  0  0  0  0  0  0  0
    8.7178   47.6451  131.9990 C   0  0  0  0  0  0  0  0  0  0  0  0
    8.1204   48.8741  131.8764 C   0  0  0  0  0  0  0  0  0  0  0  0
    8.6523   49.8825  131.0420 C   0  0  0  0  0  0  0  0  0  0  0  0
    9.7990   49.5467  130.3673 C   0  0  0  0  0  0  0  0  0  0  0  0
   10.3930   48.2934  130.5038 C   0  0  0  0  0  0  0  0  0  0  0  0
    8.0003   51.0880  130.9670 O   0  0  0  0  0  0  0  0  0  0  0  0
    7.0135   51.4859  130.1149 C   0  0  0  0  0  0  0  0  0  0  0  0
    5.7902   50.5979  130.0226 C   0  0  0  0  0  0  0  0  0  0  0  0
    6.1794   49.3507  129.4601 N   0  0  0  0  0  0  0  0  0  0  0  0
    5.1934   48.3428  129.3413 C   0  0  0  0  0  0  0  0  0  0  0  0
    5.8652   47.0065  129.6595 C   0  0  0  0  0  0  0  0  0  0  0  0
    7.1695   46.9301  128.9029 C   0  0  0  0  0  0  0  0  0  0  0  0
    7.2840   47.9984  127.8300 C   0  0  0  0  0  0  0  0  0  0  0  0
    7.1918   49.3672  128.4696 C   0  0  0  0  0  0  0  0  0  0  0  0
 13 14  1  0  0  0
 14 15  2  0  0  0
 15 16  1  0  0  0
 16 17  2  0  0  0
 17 18  1  0  0  0
 18 19  2  0  0  0
 17  1  1  0  0  0
  1  2  1  0  0  0
  2  3  1  0  0  0
  3  4  2  0  0  0
  4  5  1  0  0  0
  5  6  1  0  0  0
  5  7  2  0  0  0
  7  8  1  0  0  0
  8  9  2  0  0  0
  9 10  1  0  0  0
 10 11  1  0  0  0
 11 21  1  0  0  0
 21 22  2  0  0  0
 22 23  1  0  0  0
 23 24  2  0  0  0
 24 27  1  0  0  0
 27 28  1  0  0  0
 28 29  1  0  0  0
 29 30  1  0  0  0
 30 31  1  0  0  0
 31 32  1  0  0  0
 32 33  1  0  0  0
 33 34  1  0  0  0
 34 35  1  0  0  0
 24 25  1  0  0  0
 25 26  2  0  0  0
 19 14  1  0  0  0
 11  1  1  0  0  0
 26 21  1  0  0  0
  9  3  1  0  0  0
 35 30  1  0  0  0
 13 20  1  0  0  0
  6 12  1  0  0  0
M  END
> <minimizedAffinity>
10.63188

> <CNNscore>
0.3868657351

> <CNNaffinity>
7.4567055702

> <CNN_VS>
2.8847439289

> <CNNaffinity_variance>
0.5902930498

$$$$
[H]Oc1c([H])c([H])c([C@]2([H])Sc3c([H])c(O[H])c([H])c([H])c3O[C@@]2([H])c2c([H])c([H])c(OC([H])([H])C([H])([H])N3C([H])([H])C([H])([H])C([H])([H])C([H])([H])C3([H])[H])c([H])c2[H])c([H])c1[H]


 35 39  0  0  0  0  0  0  0  0999 V2000
    8.9096   47.2590  129.3662 C   0  0  0  0  0  0  0  0  0  0  0  0
    9.3666   46.7392  127.6822 S   0  0  0  0  0  0  0  0  0  0  0  0
   10.3699   45.3048  127.8500 C   0  0  0  0  0  0  0  0  0  0  0  0
   11.0551   44.8128  126.7893 C   0  0  0  0  0  0  0  0  0  0  0  0
   11.8611   43.6738  126.9012 C   0  0  0  0  0  0  0  0  0  0  0  0
   12.5725   43.1469  125.8416 O   0  0  0  0  0  0  0  0  0  0  0  0
   11.9531   43.0456  128.1217 C   0  0  0  0  0  0  0  0  0  0  0  0
   11.2683   43.5268  129.2079 C   0  0  0  0  0  0  0  0  0  0  0  0
   10.4763   44.6644  129.0533 C   0  0  0  0  0  0  0  0  0  0  0  0
    9.8061   45.1269  130.1348 O   0  0  0  0  0  0  0  0  0  0  0  0
    8.7283   46.0226  130.1787 C   0  0  0  0  0  0  0  0  0  0  0  0
   13.5263   43.5133  125.7220 H   0  0  0  0  0  0  0  0  0  0  0  0
    4.1219   50.3254  129.3824 O   0  0  0  0  0  0  0  0  0  0  0  0
    5.3134   49.5751  129.3803 C   0  0  0  0  0  0  0  0  0  0  0  0
    6.5360   50.1525  129.6379 C   0  0  0  0  0  0  0  0  0  0  0  0
    7.7038   49.4192  129.6363 C   0  0  0  0  0  0  0  0  0  0  0  0
    7.6851   48.0672  129.3734 C   0  0  0  0  0  0  0  0  0  0  0  0
    6.4553   47.4743  129.1118 C   0  0  0  0  0  0  0  0  0  0  0  0
    5.3029   48.2215  129.1180 C   0  0  0  0  0  0  0  0  0  0  0  0
    3.5778   50.4362  130.2504 H   0  0  0  0  0  0  0  0  0  0  0  0
    8.5870   46.4100  131.6252 C   0  0  0  0  0  0  0  0  0  0  0  0
    7.9989   45.5758  132.5458 C   0  0  0  0  0  0  0  0  0  0  0  0
    7.8740   45.9240  133.8669 C   0  0  0  0  0  0  0  0  0  0  0  0
    8.3429   47.1622  134.3600 C   0  0  0  0  0  0  0  0  0  0  0  0
    8.9263   47.9853  133.4299 C   0  0  0  0  0  0  0  0  0  0  0  0
    9.0455   47.6156  132.0916 C   0  0  0  0  0  0  0  0  0  0  0  0
    8.1825   47.4440  135.6937 O   0  0  0  0  0  0  0  0  0  0  0  0
    9.0038   47.1574  136.7431 C   0  0  0  0  0  0  0  0  0  0  0  0
   10.4910   47.1255  136.4590 C   0  0  0  0  0  0  0  0  0  0  0  0
   10.7613   46.0310  135.5916 N   0  0  0  0  0  0  0  0  0  0  0  0
   11.8929   46.1209  134.7469 C   0  0  0  0  0  0  0  0  0  0  0  0
   11.5134   45.4918  133.4058 C   0  0  0  0  0  0  0  0  0  0  0  0
   10.8254   44.1739  133.6687 C   0  0  0  0  0  0  0  0  0  0  0  0
   10.9945   43.7044  135.1027 C   0  0  0  0  0  0  0  0  0  0  0  0
   10.4085   44.7356  136.0432 C   0  0  0  0  0  0  0  0  0  0  0  0
 13 14  1  0  0  0
 14 15  2  0  0  0
 15 16  1  0  0  0
 16 17  2  0  0  0
 17 18  1  0  0  0
 18 19  2  0  0  0
 17  1  1  0  0  0
  1  2  1  0  0  0
  2  3  1  0  0  0
  3  4  2  0  0  0
  4  5  1  0  0  0
  5  6  1  0  0  0
  5  7  2  0  0  0
  7  8  1  0  0  0
  8  9  2  0  0  0
  9 10  1  0  0  0
 10 11  1  0  0  0
 11 21  1  0  0  0
 21 22  2  0  0  0
 22 23  1  0  0  0
 23 24  2  0  0  0
 24 27  1  0  0  0
 27 28  1  0  0  0
 28 29  1  0  0  0
 29 30  1  0  0  0
 30 31  1  0  0  0
 31 32  1  0  0  0
 32 33  1  0  0  0
 33 34  1  0  0  0
 34 35  1  0  0  0
 24 25  1  0  0  0
 25 26  2  0  0  0
 19 14  1  0  0  0
 11  1  1  0  0  0
 26 21  1  0  0  0
  9  3  1  0  0  0
 35 30  1  0  0  0
 13 20  1  0  0  0
  6 12  1  0  0  0
M  END
> <minimizedAffinity>
16.19857

> <CNNscore>
0.3738085032

> <CNNaffinity>
7.4365973473

> <CNN_VS>
2.7798633575

> <CNNaffinity_variance>
0.9551832080

$$$$
[H]Oc1c([H])c([H])c([C@]2([H])Sc3c([H])c(O[H])c([H])c([H])c3O[C@@]2([H])c2c([H])c([H])c(OC([H])([H])C([H])([H])N3C([H])([H])C([H])([H])C([H])([H])C([H])([H])C3([H])[H])c([H])c2[H])c([H])c1[H]


 35 39  0  0  0  0  0  0  0  0999 V2000
   10.4272   46.6435  131.4044 C   0  0  0  0  0  0  0  0  0  0  0  0
    9.0952   47.6802  132.0869 S   0  0  0  0  0  0  0  0  0  0  0  0
    8.1818   48.2974  130.7169 C   0  0  0  0  0  0  0  0  0  0  0  0
    7.2660   49.2823  130.8841 C   0  0  0  0  0  0  0  0  0  0  0  0
    6.5296   49.7897  129.8072 C   0  0  0  0  0  0  0  0  0  0  0  0
    5.5901   50.7924  129.9425 O   0  0  0  0  0  0  0  0  0  0  0  0
    6.7479   49.2691  128.5526 C   0  0  0  0  0  0  0  0  0  0  0  0
    7.6700   48.2723  128.3611 C   0  0  0  0  0  0  0  0  0  0  0  0
    8.3823   47.7952  129.4611 C   0  0  0  0  0  0  0  0  0  0  0  0
    9.2886   46.8107  129.2559 O   0  0  0  0  0  0  0  0  0  0  0  0
    9.8828   45.9587  130.1976 C   0  0  0  0  0  0  0  0  0  0  0  0
    5.9468   51.7515  129.8365 H   0  0  0  0  0  0  0  0  0  0  0  0
   12.2268   42.8035  135.1914 O   0  0  0  0  0  0  0  0  0  0  0  0
   11.7909   43.7594  134.2540 C   0  0  0  0  0  0  0  0  0  0  0  0
   12.6234   44.7511  133.7868 C   0  0  0  0  0  0  0  0  0  0  0  0
   12.1981   45.6881  132.8688 C   0  0  0  0  0  0  0  0  0  0  0  0
   10.9094   45.6623  132.3828 C   0  0  0  0  0  0  0  0  0  0  0  0
   10.0605   44.6649  132.8484 C   0  0  0  0  0  0  0  0  0  0  0  0
   10.5026   43.7404  133.7629 C   0  0  0  0  0  0  0  0  0  0  0  0
   12.6495   41.9187  134.8746 H   0  0  0  0  0  0  0  0  0  0  0  0
   11.0144   45.2845  129.4715 C   0  0  0  0  0  0  0  0  0  0  0  0
   10.9695   45.0474  128.1183 C   0  0  0  0  0  0  0  0  0  0  0  0
   12.0026   44.4381  127.4522 C   0  0  0  0  0  0  0  0  0  0  0  0
   13.1754   44.0178  128.1186 C   0  0  0  0  0  0  0  0  0  0  0  0
   13.2060   44.2594  129.4690 C   0  0  0  0  0  0  0  0  0  0  0  0
   12.1476   44.8800  130.1299 C   0  0  0  0  0  0  0  0  0  0  0  0
   14.1678   43.4132  127.3883 O   0  0  0  0  0  0  0  0  0  0  0  0
   14.2542   42.1271  126.9450 C   0  0  0  0  0  0  0  0  0  0  0  0
   13.6338   41.8250  125.5969 C   0  0  0  0  0  0  0  0  0  0  0  0
   13.2514   40.4551  125.5729 N   0  0  0  0  0  0  0  0  0  0  0  0
   13.2596   39.7451  126.7968 C   0  0  0  0  0  0  0  0  0  0  0  0
   13.7652   38.3323  126.5022 C   0  0  0  0  0  0  0  0  0  0  0  0
   13.0416   37.8048  125.2867 C   0  0  0  0  0  0  0  0  0  0  0  0
   11.8343   38.6477  124.9160 C   0  0  0  0  0  0  0  0  0  0  0  0
   12.2800   40.0636  124.6192 C   0  0  0  0  0  0  0  0  0  0  0  0
 13 14  1  0  0  0
 14 15  2  0  0  0
 15 16  1  0  0  0
 16 17  2  0  0  0
 17 18  1  0  0  0
 18 19  2  0  0  0
 17  1  1  0  0  0
  1  2  1  0  0  0
  2  3  1  0  0  0
  3  4  2  0  0  0
  4  5  1  0  0  0
  5  6  1  0  0  0
  5  7  2  0  0  0
  7  8  1  0  0  0
  8  9  2  0  0  0
  9 10  1  0  0  0
 10 11  1  0  0  0
 11 21  1  0  0  0
 21 22  2  0  0  0
 22 23  1  0  0  0
 23 24  2  0  0  0
 24 27  1  0  0  0
 27 28  1  0  0  0
 28 29  1  0  0  0
 29 30  1  0  0  0
 30 31  1  0  0  0
 31 32  1  0  0  0
 32 33  1  0  0  0
 33 34  1  0  0  0
 34 35  1  0  0  0
 24 25  1  0  0  0
 25 26  2  0  0  0
 19 14  1  0  0  0
 11  1  1  0  0  0
 26 21  1  0  0  0
  9  3  1  0  0  0
 35 30  1  0  0  0
 13 20  1  0  0  0
  6 12  1  0  0  0
M  END
> <minimizedAffinity>
21.20739

> <CNNscore>
0.3477922082

> <CNNaffinity>
7.4280242920

> <CNN_VS>
2.5834090710

> <CNNaffinity_variance>
0.5157540441

$$$$
[H]Oc1c([H])c([H])c([C@@]2([H])Sc3c([H])c(O[H])c([H])c([H])c3O[C@@]2([H])c2c([H])c([H])c(N(C([H])([H])[H])C([H])([H])[H])c([H])c2[H])c([H])c1[H]


 29 32  0  0  0  0  0  0  0  0999 V2000
   10.7324   45.1217  132.4040 C   0  0  0  0  0  0  0  0  0  0  0  0
   11.4018   44.9117  131.1544 O   0  0  0  0  0  0  0  0  0  0  0  0
   10.8635   44.4147  130.0070 C   0  0  0  0  0  0  0  0  0  0  0  0
   11.4680   43.4433  129.2041 C   0  0  0  0  0  0  0  0  0  0  0  0
   10.8480   43.0046  128.0644 C   0  0  0  0  0  0  0  0  0  0  0  0
    9.6236   43.4763  127.6454 C   0  0  0  0  0  0  0  0  0  0  0  0
    8.9785   43.0469  126.4952 O   0  0  0  0  0  0  0  0  0  0  0  0
    9.0525   44.4458  128.4770 C   0  0  0  0  0  0  0  0  0  0  0  0
    9.6485   44.8870  129.5973 C   0  0  0  0  0  0  0  0  0  0  0  0
    8.8960   46.1290  130.6109 S   0  0  0  0  0  0  0  0  0  0  0  0
    9.3326   45.5584  132.3245 C   0  0  0  0  0  0  0  0  0  0  0  0
    8.3442   42.2516  126.5890 H   0  0  0  0  0  0  0  0  0  0  0  0
    8.8020   46.5001  133.2939 C   0  0  0  0  0  0  0  0  0  0  0  0
    8.5907   47.8178  132.9669 C   0  0  0  0  0  0  0  0  0  0  0  0
    8.0349   48.7036  133.9027 C   0  0  0  0  0  0  0  0  0  0  0  0
    7.6934   48.2760  135.1520 C   0  0  0  0  0  0  0  0  0  0  0  0
    7.1456   49.1225  136.0864 O   0  0  0  0  0  0  0  0  0  0  0  0
    7.8994   46.9594  135.4920 C   0  0  0  0  0  0  0  0  0  0  0  0
    8.4466   46.0958  134.5692 C   0  0  0  0  0  0  0  0  0  0  0  0
    6.8901   48.8164  137.0165 H   0  0  0  0  0  0  0  0  0  0  0  0
   13.4520   47.1500  135.0536 C   0  0  0  0  0  0  0  0  0  0  0  0
   12.2223   47.6928  134.7773 C   0  0  0  0  0  0  0  0  0  0  0  0
   11.3390   47.0542  133.9045 C   0  0  0  0  0  0  0  0  0  0  0  0
   11.6456   45.8727  133.2868 C   0  0  0  0  0  0  0  0  0  0  0  0
   12.9033   45.3308  133.5761 C   0  0  0  0  0  0  0  0  0  0  0  0
   13.7833   45.9437  134.4306 C   0  0  0  0  0  0  0  0  0  0  0  0
   15.7121   47.2338  136.1451 C   0  0  0  0  0  0  0  0  0  0  0  0
   14.3945   47.7473  135.9677 N   0  0  0  0  0  0  0  0  0  0  0  0
   14.0172   48.9187  136.7532 C   0  0  0  0  0  0  0  0  0  0  0  0
 27 28  1  0  0  0
 28 29  1  0  0  0
 28 21  1  0  0  0
 21 22  2  0  0  0
 22 23  1  0  0  0
 23 24  2  0  0  0
 24 25  1  0  0  0
 25 26  2  0  0  0
 24  1  1  0  0  0
  1  2  1  0  0  0
  2  3  1  0  0  0
  3  4  2  0  0  0
  4  5  1  0  0  0
  5  6  2  0  0  0
  6  7  1  0  0  0
  6  8  1  0  0  0
  8  9  2  0  0  0
  9 10  1  0  0  0
 10 11  1  0  0  0
 11 13  1  0  0  0
 13 14  2  0  0  0
 14 15  1  0  0  0
 15 16  2  0  0  0
 16 17  1  0  0  0
 16 18  1  0  0  0
 18 19  2  0  0  0
 26 21  1  0  0  0
 11  1  1  0  0  0
 19 13  1  0  0  0
  9  3  1  0  0  0
  7 12  1  0  0  0
 17 20  1  0  0  0
M  END
> <minimizedAffinity>
18.54404

> <CNNscore>
0.4236493111

> <CNNaffinity>
6.8513703346

> <CNN_VS>
2.9025783539

> <CNNaffinity_variance>
2.7561542988

$$$$
[H]Oc1c([H])c([H])c([C@@]2([H])Sc3c([H])c(O[H])c([H])c([H])c3O[C@@]2([H])c2c([H])c([H])c(N(C([H])([H])[H])C([H])([H])[H])c([H])c2[H])c([H])c1[H]


 29 32  0  0  0  0  0  0  0  0999 V2000
    8.9207   45.5839  132.2798 C   0  0  0  0  0  0  0  0  0  0  0  0
   10.1817   44.9775  132.5898 O   0  0  0  0  0  0  0  0  0  0  0  0
   10.5414   43.6801  132.3881 C   0  0  0  0  0  0  0  0  0  0  0  0
   11.2078   42.8876  133.3269 C   0  0  0  0  0  0  0  0  0  0  0  0
   11.5294   41.5893  133.0321 C   0  0  0  0  0  0  0  0  0  0  0  0
   11.2263   40.9947  131.8271 C   0  0  0  0  0  0  0  0  0  0  0  0
   11.5428   39.6828  131.5075 O   0  0  0  0  0  0  0  0  0  0  0  0
   10.5587   41.8210  130.9165 C   0  0  0  0  0  0  0  0  0  0  0  0
   10.2374   43.0965  131.1905 C   0  0  0  0  0  0  0  0  0  0  0  0
    9.4073   44.1114  130.0001 S   0  0  0  0  0  0  0  0  0  0  0  0
    8.2514   45.1035  131.0642 C   0  0  0  0  0  0  0  0  0  0  0  0
   10.8470   38.9698  131.7337 H   0  0  0  0  0  0  0  0  0  0  0  0
    7.4997   46.0228  130.2289 C   0  0  0  0  0  0  0  0  0  0  0  0
    8.0961   46.6902  129.1863 C   0  0  0  0  0  0  0  0  0  0  0  0
    7.3438   47.5404  128.3615 C   0  0  0  0  0  0  0  0  0  0  0  0
    6.0091   47.7208  128.5764 C   0  0  0  0  0  0  0  0  0  0  0  0
    5.2491   48.5461  127.7822 O   0  0  0  0  0  0  0  0  0  0  0  0
    5.3998   47.0585  129.6165 C   0  0  0  0  0  0  0  0  0  0  0  0
    6.1444   46.2267  130.4230 C   0  0  0  0  0  0  0  0  0  0  0  0
    4.2587   48.6885  127.9336 H   0  0  0  0  0  0  0  0  0  0  0  0
    9.3151   49.8554  132.6395 C   0  0  0  0  0  0  0  0  0  0  0  0
   10.0475   49.0231  133.4482 C   0  0  0  0  0  0  0  0  0  0  0  0
    9.9141   47.6363  133.3544 C   0  0  0  0  0  0  0  0  0  0  0  0
    9.0604   47.0409  132.4667 C   0  0  0  0  0  0  0  0  0  0  0  0
    8.3183   47.9011  131.6492 C   0  0  0  0  0  0  0  0  0  0  0  0
    8.4363   49.2650  131.7271 C   0  0  0  0  0  0  0  0  0  0  0  0
    8.9317   52.1184  131.6206 C   0  0  0  0  0  0  0  0  0  0  0  0
    9.4304   51.2929  132.6699 N   0  0  0  0  0  0  0  0  0  0  0  0
   10.0748   51.9561  133.7996 C   0  0  0  0  0  0  0  0  0  0  0  0
 27 28  1  0  0  0
 28 29  1  0  0  0
 28 21  1  0  0  0
 21 22  2  0  0  0
 22 23  1  0  0  0
 23 24  2  0  0  0
 24 25  1  0  0  0
 25 26  2  0  0  0
 24  1  1  0  0  0
  1  2  1  0  0  0
  2  3  1  0  0  0
  3  4  2  0  0  0
  4  5  1  0  0  0
  5  6  2  0  0  0
  6  7  1  0  0  0
  6  8  1  0  0  0
  8  9  2  0  0  0
  9 10  1  0  0  0
 10 11  1  0  0  0
 11 13  1  0  0  0
 13 14  2  0  0  0
 14 15  1  0  0  0
 15 16  2  0  0  0
 16 17  1  0  0  0
 16 18  1  0  0  0
 18 19  2  0  0  0
 26 21  1  0  0  0
 11  1  1  0  0  0
 19 13  1  0  0  0
  9  3  1  0  0  0
  7 12  1  0  0  0
 17 20  1  0  0  0
M  END
> <minimizedAffinity>
10.74162

> <CNNscore>
0.4209263921

> <CNNaffinity>
7.2757239342

> <CNN_VS>
3.0625441074

> <CNNaffinity_variance>
2.0469906330

$$$$
[H]Oc1c([H])c([H])c([C@@]2([H])Sc3c([H])c(O[H])c([H])c([H])c3O[C@@]2([H])c2c([H])c([H])c(N(C([H])([H])[H])C([H])([H])[H])c([H])c2[H])c([H])c1[H]


 29 32  0  0  0  0  0  0  0  0999 V2000
   10.3821   46.9862  133.7036 C   0  0  0  0  0  0  0  0  0  0  0  0
   11.2704   48.0682  134.0099 O   0  0  0  0  0  0  0  0  0  0  0  0
   12.3516   48.0352  134.8366 C   0  0  0  0  0  0  0  0  0  0  0  0
   12.6481   49.0109  135.7925 C   0  0  0  0  0  0  0  0  0  0  0  0
   13.7623   48.8912  136.5801 C   0  0  0  0  0  0  0  0  0  0  0  0
   14.6389   47.8328  136.4865 C   0  0  0  0  0  0  0  0  0  0  0  0
   15.7726   47.6921  137.2729 O   0  0  0  0  0  0  0  0  0  0  0  0
   14.3055   46.8785  135.5193 C   0  0  0  0  0  0  0  0  0  0  0  0
   13.2170   46.9823  134.7385 C   0  0  0  0  0  0  0  0  0  0  0  0
   12.8436   45.7582  133.5144 S   0  0  0  0  0  0  0  0  0  0  0  0
   10.9910   45.6529  133.6133 C   0  0  0  0  0  0  0  0  0  0  0  0
   15.6661   47.1839  138.1528 H   0  0  0  0  0  0  0  0  0  0  0  0
   10.5119   44.6926  132.6355 C   0  0  0  0  0  0  0  0  0  0  0  0
    9.4715   43.8418  132.9212 C   0  0  0  0  0  0  0  0  0  0  0  0
    8.9920   42.9512  131.9485 C   0  0  0  0  0  0  0  0  0  0  0  0
    9.5466   42.9122  130.7031 C   0  0  0  0  0  0  0  0  0  0  0  0
    9.0944   42.0509  129.7318 O   0  0  0  0  0  0  0  0  0  0  0  0
   10.5885   43.7587  130.4040 C   0  0  0  0  0  0  0  0  0  0  0  0
   11.0551   44.6293  131.3638 C   0  0  0  0  0  0  0  0  0  0  0  0
    9.4995   42.0125  128.8053 H   0  0  0  0  0  0  0  0  0  0  0  0
    7.8201   48.4343  130.5620 C   0  0  0  0  0  0  0  0  0  0  0  0
    7.5514   47.2370  131.1764 C   0  0  0  0  0  0  0  0  0  0  0  0
    8.3857   46.7474  132.1834 C   0  0  0  0  0  0  0  0  0  0  0  0
    9.4982   47.4223  132.6056 C   0  0  0  0  0  0  0  0  0  0  0  0
    9.7616   48.6410  131.9697 C   0  0  0  0  0  0  0  0  0  0  0  0
    8.9535   49.1375  130.9793 C   0  0  0  0  0  0  0  0  0  0  0  0
    6.1587   50.1449  129.7745 C   0  0  0  0  0  0  0  0  0  0  0  0
    6.9807   49.0051  129.5372 N   0  0  0  0  0  0  0  0  0  0  0  0
    6.9489   48.4188  128.2006 C   0  0  0  0  0  0  0  0  0  0  0  0
 27 28  1  0  0  0
 28 29  1  0  0  0
 28 21  1  0  0  0
 21 22  2  0  0  0
 22 23  1  0  0  0
 23 24  2  0  0  0
 24 25  1  0  0  0
 25 26  2  0  0  0
 24  1  1  0  0  0
  1  2  1  0  0  0
  2  3  1  0  0  0
  3  4  2  0  0  0
  4  5  1  0  0  0
  5  6  2  0  0  0
  6  7  1  0  0  0
  6  8  1  0  0  0
  8  9  2  0  0  0
  9 10  1  0  0  0
 10 11  1  0  0  0
 11 13  1  0  0  0
 13 14  2  0  0  0
 14 15  1  0  0  0
 15 16  2  0  0  0
 16 17  1  0  0  0
 16 18  1  0  0  0
 18 19  2  0  0  0
 26 21  1  0  0  0
 11  1  1  0  0  0
 19 13  1  0  0  0
  9  3  1  0  0  0
  7 12  1  0  0  0
 17 20  1  0  0  0
M  END
> <minimizedAffinity>
7.67281

> <CNNscore>
0.4169123769

> <CNNaffinity>
7.2160072327

> <CNN_VS>
3.0084426403

> <CNNaffinity_variance>
0.3852862716

$$$$
[H]Oc1c([H])c([H])c([C@@]2([H])Sc3c([H])c(O[H])c([H])c([H])c3O[C@@]2([H])c2c([H])c([H])c(N(C([H])([H])[H])C([H])([H])[H])c([H])c2[H])c([H])c1[H]


 29 32  0  0  0  0  0  0  0  0999 V2000
    9.6371   47.6134  130.6263 C   0  0  0  0  0  0  0  0  0  0  0  0
    8.7432   48.6060  131.1454 O   0  0  0  0  0  0  0  0  0  0  0  0
    8.1779   49.6400  130.4637 C   0  0  0  0  0  0  0  0  0  0  0  0
    8.1073   50.9544  130.9337 C   0  0  0  0  0  0  0  0  0  0  0  0
    7.5170   51.9295  130.1743 C   0  0  0  0  0  0  0  0  0  0  0  0
    6.9703   51.6880  128.9332 C   0  0  0  0  0  0  0  0  0  0  0  0
    6.3676   52.6596  128.1481 O   0  0  0  0  0  0  0  0  0  0  0  0
    7.0628   50.3611  128.4994 C   0  0  0  0  0  0  0  0  0  0  0  0
    7.6376   49.3934  129.2330 C   0  0  0  0  0  0  0  0  0  0  0  0
    7.7166   47.7227  128.6509 S   0  0  0  0  0  0  0  0  0  0  0  0
    9.3894   47.1754  129.2467 C   0  0  0  0  0  0  0  0  0  0  0  0
    6.9678   53.1646  127.4936 H   0  0  0  0  0  0  0  0  0  0  0  0
    9.6048   45.7907  128.8670 C   0  0  0  0  0  0  0  0  0  0  0  0
   10.7690   45.3911  128.2561 C   0  0  0  0  0  0  0  0  0  0  0  0
   10.9787   44.0408  127.9370 C   0  0  0  0  0  0  0  0  0  0  0  0
   10.0346   43.0999  128.2263 C   0  0  0  0  0  0  0  0  0  0  0  0
   10.2160   41.7708  127.9262 O   0  0  0  0  0  0  0  0  0  0  0  0
    8.8650   43.4866  128.8378 C   0  0  0  0  0  0  0  0  0  0  0  0
    8.6651   44.8137  129.1470 C   0  0  0  0  0  0  0  0  0  0  0  0
    9.5217   41.0647  128.1347 H   0  0  0  0  0  0  0  0  0  0  0  0
   10.2751   44.5035  133.5337 C   0  0  0  0  0  0  0  0  0  0  0  0
    9.0302   45.0597  133.3782 C   0  0  0  0  0  0  0  0  0  0  0  0
    8.8148   46.0823  132.4521 C   0  0  0  0  0  0  0  0  0  0  0  0
    9.8158   46.5782  131.6626 C   0  0  0  0  0  0  0  0  0  0  0  0
   11.0807   46.0035  131.8323 C   0  0  0  0  0  0  0  0  0  0  0  0
   11.3107   44.9985  132.7364 C   0  0  0  0  0  0  0  0  0  0  0  0
   11.4331   43.5808  135.5620 C   0  0  0  0  0  0  0  0  0  0  0  0
   10.5527   43.4264  134.4519 N   0  0  0  0  0  0  0  0  0  0  0  0
    9.9268   42.1206  134.2659 C   0  0  0  0  0  0  0  0  0  0  0  0
 27 28  1  0  0  0
 28 29  1  0  0  0
 28 21  1  0  0  0
 21 22  2  0  0  0
 22 23  1  0  0  0
 23 24  2  0  0  0
 24 25  1  0  0  0
 25 26  2  0  0  0
 24  1  1  0  0  0
  1  2  1  0  0  0
  2  3  1  0  0  0
  3  4  2  0  0  0
  4  5  1  0  0  0
  5  6  2  0  0  0
  6  7  1  0  0  0
  6  8  1  0  0  0
  8  9  2  0  0  0
  9 10  1  0  0  0
 10 11  1  0  0  0
 11 13  1  0  0  0
 13 14  2  0  0  0
 14 15  1  0  0  0
 15 16  2  0  0  0
 16 17  1  0  0  0
 16 18  1  0  0  0
 18 19  2  0  0  0
 26 21  1  0  0  0
 11  1  1  0  0  0
 19 13  1  0  0  0
  9  3  1  0  0  0
  7 12  1  0  0  0
 17 20  1  0  0  0
M  END
> <minimizedAffinity>
-0.34090

> <CNNscore>
0.4163550735

> <CNNaffinity>
7.3112893105

> <CNN_VS>
3.0440924168

> <CNNaffinity_variance>
1.1842298508

$$$$
[H]Oc1c([H])c([H])c([C@@]2([H])Sc3c([H])c(O[H])c([H])c([H])c3O[C@@]2([H])c2c([H])c([H])c(N(C([H])([H])[H])C([H])([H])[H])c([H])c2[H])c([H])c1[H]


 29 32  0  0  0  0  0  0  0  0999 V2000
    9.4206   46.1332  130.2956 C   0  0  0  0  0  0  0  0  0  0  0  0
    9.2888   47.3581  129.5635 O   0  0  0  0  0  0  0  0  0  0  0  0
    8.3260   48.3082  129.7176 C   0  0  0  0  0  0  0  0  0  0  0  0
    7.6416   48.9207  128.6641 C   0  0  0  0  0  0  0  0  0  0  0  0
    6.6868   49.8692  128.9185 C   0  0  0  0  0  0  0  0  0  0  0  0
    6.3464   50.2707  130.1914 C   0  0  0  0  0  0  0  0  0  0  0  0
    5.3838   51.2290  130.4716 O   0  0  0  0  0  0  0  0  0  0  0  0
    7.0531   49.6328  131.2166 C   0  0  0  0  0  0  0  0  0  0  0  0
    7.9931   48.7016  130.9832 C   0  0  0  0  0  0  0  0  0  0  0  0
    8.8754   47.9327  132.3122 S   0  0  0  0  0  0  0  0  0  0  0  0
    9.0435   46.1815  131.7140 C   0  0  0  0  0  0  0  0  0  0  0  0
    4.4260   50.8990  130.6041 H   0  0  0  0  0  0  0  0  0  0  0  0
    9.7816   45.4075  132.6959 C   0  0  0  0  0  0  0  0  0  0  0  0
   10.5606   46.0196  133.6480 C   0  0  0  0  0  0  0  0  0  0  0  0
   11.2309   45.2577  134.6172 C   0  0  0  0  0  0  0  0  0  0  0  0
   11.1230   43.8982  134.6345 C   0  0  0  0  0  0  0  0  0  0  0  0
   11.7674   43.1290  135.5739 O   0  0  0  0  0  0  0  0  0  0  0  0
   10.3462   43.2731  133.6872 C   0  0  0  0  0  0  0  0  0  0  0  0
    9.6921   44.0268  132.7381 C   0  0  0  0  0  0  0  0  0  0  0  0
   11.6956   42.1197  135.5951 H   0  0  0  0  0  0  0  0  0  0  0  0
   13.2983   44.5097  129.3689 C   0  0  0  0  0  0  0  0  0  0  0  0
   12.3178   44.5483  128.4095 C   0  0  0  0  0  0  0  0  0  0  0  0
   11.0501   45.0547  128.7032 C   0  0  0  0  0  0  0  0  0  0  0  0
   10.7210   45.5318  129.9424 C   0  0  0  0  0  0  0  0  0  0  0  0
   11.7294   45.4851  130.9118 C   0  0  0  0  0  0  0  0  0  0  0  0
   12.9799   44.9916  130.6415 C   0  0  0  0  0  0  0  0  0  0  0  0
   15.0727   42.7426  129.5569 C   0  0  0  0  0  0  0  0  0  0  0  0
   14.6337   44.0255  129.1181 N   0  0  0  0  0  0  0  0  0  0  0  0
   15.5929   44.8534  128.3928 C   0  0  0  0  0  0  0  0  0  0  0  0
 27 28  1  0  0  0
 28 29  1  0  0  0
 28 21  1  0  0  0
 21 22  2  0  0  0
 22 23  1  0  0  0
 23 24  2  0  0  0
 24 25  1  0  0  0
 25 26  2  0  0  0
 24  1  1  0  0  0
  1  2  1  0  0  0
  2  3  1  0  0  0
  3  4  2  0  0  0
  4  5  1  0  0  0
  5  6  2  0  0  0
  6  7  1  0  0  0
  6  8  1  0  0  0
  8  9  2  0  0  0
  9 10  1  0  0  0
 10 11  1  0  0  0
 11 13  1  0  0  0
 13 14  2  0  0  0
 14 15  1  0  0  0
 15 16  2  0  0  0
 16 17  1  0  0  0
 16 18  1  0  0  0
 18 19  2  0  0  0
 26 21  1  0  0  0
 11  1  1  0  0  0
 19 13  1  0  0  0
  9  3  1  0  0  0
  7 12  1  0  0  0
 17 20  1  0  0  0
M  END
> <minimizedAffinity>
3.46846

> <CNNscore>
0.4102166295

> <CNNaffinity>
7.4449758530

> <CNN_VS>
3.0540528297

> <CNNaffinity_variance>
1.1965391636

$$$$
[H]Oc1c([H])c([H])c([C@@]2([H])Sc3c([H])c(O[H])c([H])c([H])c3O[C@@]2([H])c2c([H])c([H])c(N(C([H])([H])[H])C([H])([H])[H])c([H])c2[H])c([H])c1[H]


 29 32  0  0  0  0  0  0  0  0999 V2000
    8.7008   47.1716  131.5475 C   0  0  0  0  0  0  0  0  0  0  0  0
    7.4443   47.6904  131.0937 O   0  0  0  0  0  0  0  0  0  0  0  0
    7.2328   48.8443  130.4030 C   0  0  0  0  0  0  0  0  0  0  0  0
    6.2265   49.7693  130.6949 C   0  0  0  0  0  0  0  0  0  0  0  0
    6.0910   50.9047  129.9410 C   0  0  0  0  0  0  0  0  0  0  0  0
    6.9130   51.2029  128.8767 C   0  0  0  0  0  0  0  0  0  0  0  0
    6.7934   52.3456  128.0999 O   0  0  0  0  0  0  0  0  0  0  0  0
    7.9071   50.2528  128.6188 C   0  0  0  0  0  0  0  0  0  0  0  0
    8.0521   49.1340  129.3484 C   0  0  0  0  0  0  0  0  0  0  0  0
    9.3148   47.9499  128.9746 S   0  0  0  0  0  0  0  0  0  0  0  0
    9.8528   47.3988  130.6656 C   0  0  0  0  0  0  0  0  0  0  0  0
    7.3229   53.1666  128.3986 H   0  0  0  0  0  0  0  0  0  0  0  0
   10.8869   46.3881  130.5347 C   0  0  0  0  0  0  0  0  0  0  0  0
   11.1302   45.7675  129.3332 C   0  0  0  0  0  0  0  0  0  0  0  0
   12.1637   44.8256  129.2145 C   0  0  0  0  0  0  0  0  0  0  0  0
   12.9458   44.5082  130.2857 C   0  0  0  0  0  0  0  0  0  0  0  0
   13.9656   43.5908  130.1957 O   0  0  0  0  0  0  0  0  0  0  0  0
   12.7130   45.1223  131.4941 C   0  0  0  0  0  0  0  0  0  0  0  0
   11.6962   46.0447  131.6039 C   0  0  0  0  0  0  0  0  0  0  0  0
   14.5509   43.3465  130.9842 H   0  0  0  0  0  0  0  0  0  0  0  0
    8.1631   43.2117  133.1478 C   0  0  0  0  0  0  0  0  0  0  0  0
    8.0914   43.4259  131.7942 C   0  0  0  0  0  0  0  0  0  0  0  0
    8.2449   44.7087  131.2645 C   0  0  0  0  0  0  0  0  0  0  0  0
    8.4709   45.8042  132.0520 C   0  0  0  0  0  0  0  0  0  0  0  0
    8.5402   45.5721  133.4306 C   0  0  0  0  0  0  0  0  0  0  0  0
    8.3922   44.3194  133.9684 C   0  0  0  0  0  0  0  0  0  0  0  0
    6.7858   41.2482  133.8919 C   0  0  0  0  0  0  0  0  0  0  0  0
    8.0416   41.9072  133.7511 N   0  0  0  0  0  0  0  0  0  0  0  0
    9.2261   41.2111  134.2450 C   0  0  0  0  0  0  0  0  0  0  0  0
 27 28  1  0  0  0
 28 29  1  0  0  0
 28 21  1  0  0  0
 21 22  2  0  0  0
 22 23  1  0  0  0
 23 24  2  0  0  0
 24 25  1  0  0  0
 25 26  2  0  0  0
 24  1  1  0  0  0
  1  2  1  0  0  0
  2  3  1  0  0  0
  3  4  2  0  0  0
  4  5  1  0  0  0
  5  6  2  0  0  0
  6  7  1  0  0  0
  6  8  1  0  0  0
  8  9  2  0  0  0
  9 10  1  0  0  0
 10 11  1  0  0  0
 11 13  1  0  0  0
 13 14  2  0  0  0
 14 15  1  0  0  0
 15 16  2  0  0  0
 16 17  1  0  0  0
 16 18  1  0  0  0
 18 19  2  0  0  0
 26 21  1  0  0  0
 11  1  1  0  0  0
 19 13  1  0  0  0
  9  3  1  0  0  0
  7 12  1  0  0  0
 17 20  1  0  0  0
M  END
> <minimizedAffinity>
2.90963

> <CNNscore>
0.3993141949

> <CNNaffinity>
6.8794736862

> <CNN_VS>
2.7470715046

> <CNNaffinity_variance>
1.1122573614

$$$$
[H]Oc1c([H])c([H])c([C@@]2([H])Sc3c([H])c(O[H])c([H])c([H])c3O[C@@]2([H])c2c([H])c([H])c(N(C([H])([H])[H])C([H])([H])[H])c([H])c2[H])c([H])c1[H]


 29 32  0  0  0  0  0  0  0  0999 V2000
    8.9187   45.3045  132.3065 C   0  0  0  0  0  0  0  0  0  0  0  0
    9.3537   45.7607  133.5935 O   0  0  0  0  0  0  0  0  0  0  0  0
   10.0221   45.0425  134.5373 C   0  0  0  0  0  0  0  0  0  0  0  0
    9.7062   45.0359  135.8989 C   0  0  0  0  0  0  0  0  0  0  0  0
   10.4388   44.2799  136.7750 C   0  0  0  0  0  0  0  0  0  0  0  0
   11.5038   43.4980  136.3851 C   0  0  0  0  0  0  0  0  0  0  0  0
   12.2591   42.7257  137.2548 O   0  0  0  0  0  0  0  0  0  0  0  0
   11.7859   43.5317  135.0152 C   0  0  0  0  0  0  0  0  0  0  0  0
   11.0775   44.2689  134.1435 C   0  0  0  0  0  0  0  0  0  0  0  0
   11.4818   44.2946  132.4196 S   0  0  0  0  0  0  0  0  0  0  0  0
    9.8049   44.3550  131.6213 C   0  0  0  0  0  0  0  0  0  0  0  0
   11.9498   41.7643  137.4088 H   0  0  0  0  0  0  0  0  0  0  0  0
    9.9615   44.4078  130.1789 C   0  0  0  0  0  0  0  0  0  0  0  0
    9.2979   43.5298  129.3564 C   0  0  0  0  0  0  0  0  0  0  0  0
    9.4259   43.6244  127.9622 C   0  0  0  0  0  0  0  0  0  0  0  0
   10.2088   44.5873  127.3964 C   0  0  0  0  0  0  0  0  0  0  0  0
   10.3497   44.7030  126.0339 O   0  0  0  0  0  0  0  0  0  0  0  0
   10.8784   45.4727  128.2084 C   0  0  0  0  0  0  0  0  0  0  0  0
   10.7493   45.3733  129.5760 C   0  0  0  0  0  0  0  0  0  0  0  0
   10.9291   45.4124  125.6036 H   0  0  0  0  0  0  0  0  0  0  0  0
    7.5141   48.8200  130.2572 C   0  0  0  0  0  0  0  0  0  0  0  0
    7.0339   47.5813  129.9135 C   0  0  0  0  0  0  0  0  0  0  0  0
    7.4958   46.4317  130.5575 C   0  0  0  0  0  0  0  0  0  0  0  0
    8.4368   46.4759  131.5495 C   0  0  0  0  0  0  0  0  0  0  0  0
    8.9194   47.7450  131.8892 C   0  0  0  0  0  0  0  0  0  0  0  0
    8.4773   48.8847  131.2679 C   0  0  0  0  0  0  0  0  0  0  0  0
    7.4623   50.4445  128.3430 C   0  0  0  0  0  0  0  0  0  0  0  0
    7.0551   50.0446  129.6489 N   0  0  0  0  0  0  0  0  0  0  0  0
    6.1419   50.9272  130.3689 C   0  0  0  0  0  0  0  0  0  0  0  0
 27 28  1  0  0  0
 28 29  1  0  0  0
 28 21  1  0  0  0
 21 22  2  0  0  0
 22 23  1  0  0  0
 23 24  2  0  0  0
 24 25  1  0  0  0
 25 26  2  0  0  0
 24  1  1  0  0  0
  1  2  1  0  0  0
  2  3  1  0  0  0
  3  4  2  0  0  0
  4  5  1  0  0  0
  5  6  2  0  0  0
  6  7  1  0  0  0
  6  8  1  0  0  0
  8  9  2  0  0  0
  9 10  1  0  0  0
 10 11  1  0  0  0
 11 13  1  0  0  0
 13 14  2  0  0  0
 14 15  1  0  0  0
 15 16  2  0  0  0
 16 17  1  0  0  0
 16 18  1  0  0  0
 18 19  2  0  0  0
 26 21  1  0  0  0
 11  1  1  0  0  0
 19 13  1  0  0  0
  9  3  1  0  0  0
  7 12  1  0  0  0
 17 20  1  0  0  0
M  END
> <minimizedAffinity>
3.18098

> <CNNscore>
0.3722010553

> <CNNaffinity>
7.4711046219

> <CNN_VS>
2.7807531357

> <CNNaffinity_variance>
1.5774900913

$$$$
[H]Oc1c([H])c([H])c([C@@]2([H])Sc3c([H])c(O[H])c([H])c([H])c3O[C@@]2([H])c2c([H])c([H])c(N(C([H])([H])[H])C([H])([H])[H])c([H])c2[H])c([H])c1[H]


 29 32  0  0  0  0  0  0  0  0999 V2000
    8.1356   46.3672  131.2561 C   0  0  0  0  0  0  0  0  0  0  0  0
    7.6502   46.9507  130.0405 O   0  0  0  0  0  0  0  0  0  0  0  0
    7.3448   48.2592  129.8216 C   0  0  0  0  0  0  0  0  0  0  0  0
    6.1914   48.7054  129.1703 C   0  0  0  0  0  0  0  0  0  0  0  0
    5.9704   50.0458  128.9960 C   0  0  0  0  0  0  0  0  0  0  0  0
    6.8433   51.0154  129.4379 C   0  0  0  0  0  0  0  0  0  0  0  0
    6.6398   52.3771  129.2716 O   0  0  0  0  0  0  0  0  0  0  0  0
    7.9837   50.5274  130.0852 C   0  0  0  0  0  0  0  0  0  0  0  0
    8.2151   49.2159  130.2629 C   0  0  0  0  0  0  0  0  0  0  0  0
    9.6818   48.6427  131.0731 S   0  0  0  0  0  0  0  0  0  0  0  0
    9.0523   47.1939  132.0515 C   0  0  0  0  0  0  0  0  0  0  0  0
    6.1366   52.8648  130.0150 H   0  0  0  0  0  0  0  0  0  0  0  0
   10.1569   46.5822  132.7682 C   0  0  0  0  0  0  0  0  0  0  0  0
   10.0519   46.2581  134.0993 C   0  0  0  0  0  0  0  0  0  0  0  0
   11.1137   45.6262  134.7645 C   0  0  0  0  0  0  0  0  0  0  0  0
   12.2681   45.3211  134.1054 C   0  0  0  0  0  0  0  0  0  0  0  0
   13.3221   44.7007  134.7329 O   0  0  0  0  0  0  0  0  0  0  0  0
   12.3861   45.6399  132.7727 C   0  0  0  0  0  0  0  0  0  0  0  0
   11.3407   46.2612  132.1264 C   0  0  0  0  0  0  0  0  0  0  0  0
   14.1836   44.4712  134.2541 H   0  0  0  0  0  0  0  0  0  0  0  0
    9.3683   42.2995  130.5746 C   0  0  0  0  0  0  0  0  0  0  0  0
    9.3973   43.2115  129.5497 C   0  0  0  0  0  0  0  0  0  0  0  0
    8.9818   44.5289  129.7533 C   0  0  0  0  0  0  0  0  0  0  0  0
    8.5301   44.9755  130.9649 C   0  0  0  0  0  0  0  0  0  0  0  0
    8.5040   44.0350  132.0011 C   0  0  0  0  0  0  0  0  0  0  0  0
    8.9084   42.7373  131.8196 C   0  0  0  0  0  0  0  0  0  0  0  0
    9.2995   40.0691  129.4227 C   0  0  0  0  0  0  0  0  0  0  0  0
    9.8113   40.9341  130.4332 N   0  0  0  0  0  0  0  0  0  0  0  0
   10.8170   40.3886  131.3400 C   0  0  0  0  0  0  0  0  0  0  0  0
 27 28  1  0  0  0
 28 29  1  0  0  0
 28 21  1  0  0  0
 21 22  2  0  0  0
 22 23  1  0  0  0
 23 24  2  0  0  0
 24 25  1  0  0  0
 25 26  2  0  0  0
 24  1  1  0  0  0
  1  2  1  0  0  0
  2  3  1  0  0  0
  3  4  2  0  0  0
  4  5  1  0  0  0
  5  6  2  0  0  0
  6  7  1  0  0  0
  6  8  1  0  0  0
  8  9  2  0  0  0
  9 10  1  0  0  0
 10 11  1  0  0  0
 11 13  1  0  0  0
 13 14  2  0  0  0
 14 15  1  0  0  0
 15 16  2  0  0  0
 16 17  1  0  0  0
 16 18  1  0  0  0
 18 19  2  0  0  0
 26 21  1  0  0  0
 11  1  1  0  0  0
 19 13  1  0  0  0
  9  3  1  0  0  0
  7 12  1  0  0  0
 17 20  1  0  0  0
M  END
> <minimizedAffinity>
3.45937

> <CNNscore>
0.3635832965

> <CNNaffinity>
7.3560204506

> <CNN_VS>
2.6745262146

> <CNNaffinity_variance>
0.7213155031

$$$$
[H]Oc1c([H])c([H])c([C@@]2([H])Sc3c([H])c(O[H])c([H])c([H])c3O[C@@]2([H])c2c([H])c([H])c(N(C([H])([H])[H])C([H])([H])[H])c([H])c2[H])c([H])c1[H]


 29 32  0  0  0  0  0  0  0  0999 V2000
   11.5364   46.8183  131.9038 C   0  0  0  0  0  0  0  0  0  0  0  0
   12.1780   46.3369  133.0913 O   0  0  0  0  0  0  0  0  0  0  0  0
   12.5743   47.0715  134.1668 C   0  0  0  0  0  0  0  0  0  0  0  0
   13.8122   46.9412  134.8025 C   0  0  0  0  0  0  0  0  0  0  0  0
   14.1216   47.7266  135.8811 C   0  0  0  0  0  0  0  0  0  0  0  0
   13.2600   48.6697  136.3963 C   0  0  0  0  0  0  0  0  0  0  0  0
   13.5524   49.4747  137.4872 O   0  0  0  0  0  0  0  0  0  0  0  0
   12.0332   48.7692  135.7310 C   0  0  0  0  0  0  0  0  0  0  0  0
   11.7145   48.0055  134.6726 C   0  0  0  0  0  0  0  0  0  0  0  0
   10.1419   48.1538  133.8721 S   0  0  0  0  0  0  0  0  0  0  0  0
   10.5862   47.9236  132.0826 C   0  0  0  0  0  0  0  0  0  0  0  0
   13.9995   50.3727  137.2940 H   0  0  0  0  0  0  0  0  0  0  0  0
    9.3809   47.9923  131.2760 C   0  0  0  0  0  0  0  0  0  0  0  0
    9.2187   48.9622  130.3163 C   0  0  0  0  0  0  0  0  0  0  0  0
    8.0667   48.9860  129.5153 C   0  0  0  0  0  0  0  0  0  0  0  0
    7.0877   48.0495  129.6718 C   0  0  0  0  0  0  0  0  0  0  0  0
    5.9508   48.0492  128.8990 O   0  0  0  0  0  0  0  0  0  0  0  0
    7.2377   47.0730  130.6286 C   0  0  0  0  0  0  0  0  0  0  0  0
    8.3701   47.0564  131.4122 C   0  0  0  0  0  0  0  0  0  0  0  0
    5.2175   47.3603  129.0077 H   0  0  0  0  0  0  0  0  0  0  0  0
   10.1877   43.5211  129.4871 C   0  0  0  0  0  0  0  0  0  0  0  0
   10.1626   43.4304  130.8562 C   0  0  0  0  0  0  0  0  0  0  0  0
   10.6154   44.4856  131.6508 C   0  0  0  0  0  0  0  0  0  0  0  0
   11.1011   45.6480  131.1175 C   0  0  0  0  0  0  0  0  0  0  0  0
   11.1227   45.7268  129.7203 C   0  0  0  0  0  0  0  0  0  0  0  0
   10.6820   44.7009  128.9242 C   0  0  0  0  0  0  0  0  0  0  0  0
    9.4992   41.1426  129.0687 C   0  0  0  0  0  0  0  0  0  0  0  0
    9.7075   42.4774  128.6149 N   0  0  0  0  0  0  0  0  0  0  0  0
    9.4156   42.7652  127.2137 C   0  0  0  0  0  0  0  0  0  0  0  0
 27 28  1  0  0  0
 28 29  1  0  0  0
 28 21  1  0  0  0
 21 22  2  0  0  0
 22 23  1  0  0  0
 23 24  2  0  0  0
 24 25  1  0  0  0
 25 26  2  0  0  0
 24  1  1  0  0  0
  1  2  1  0  0  0
  2  3  1  0  0  0
  3  4  2  0  0  0
  4  5  1  0  0  0
  5  6  2  0  0  0
  6  7  1  0  0  0
  6  8  1  0  0  0
  8  9  2  0  0  0
  9 10  1  0  0  0
 10 11  1  0  0  0
 11 13  1  0  0  0
 13 14  2  0  0  0
 14 15  1  0  0  0
 15 16  2  0  0  0
 16 17  1  0  0  0
 16 18  1  0  0  0
 18 19  2  0  0  0
 26 21  1  0  0  0
 11  1  1  0  0  0
 19 13  1  0  0  0
  9  3  1  0  0  0
  7 12  1  0  0  0
 17 20  1  0  0  0
M  END
> <minimizedAffinity>
13.25272

> <CNNscore>
0.3633146584

> <CNNaffinity>
7.1119904518

> <CNN_VS>
2.5838904381

> <CNNaffinity_variance>
1.9378811121

$$$$
[H]OC1([H])C([H])([H])C([H])([H])[C@]2([H])[C@]1(C([H])([H])[H])C([H])([H])C([H])([H])[C@]1([H])[C@]3(C([H])([H])[H])C(=C([H])C(=O)C([H])([H])C3([H])[H])C([H])([H])C([H])([H])[C@@]21[H]


 22 25  0  0  0  0  0  0  0  0999 V2000
   10.9860   43.7810  131.2292 C   0  0  0  0  0  0  0  0  0  0  0  0
   10.0886   44.1846  132.3682 C   0  0  0  0  0  0  0  0  0  0  0  0
    8.6561   44.1797  131.9759 C   0  0  0  0  0  0  0  0  0  0  0  0
    8.4824   45.1646  130.8333 C   0  0  0  0  0  0  0  0  0  0  0  0
    8.8421   46.5510  131.3076 C   0  0  0  0  0  0  0  0  0  0  0  0
   10.2728   46.6262  131.8282 C   0  0  0  0  0  0  0  0  0  0  0  0
   10.3745   47.9852  132.5334 C   0  0  0  0  0  0  0  0  0  0  0  0
   10.1000   49.1135  131.5727 C   0  0  0  0  0  0  0  0  0  0  0  0
    8.8452   48.9219  130.8359 C   0  0  0  0  0  0  0  0  0  0  0  0
    8.0080   49.9557  130.6999 C   0  0  0  0  0  0  0  0  0  0  0  0
    6.7688   49.7918  129.9801 C   0  0  0  0  0  0  0  0  0  0  0  0
    5.8108   50.5850  130.1472 O   0  0  0  0  0  0  0  0  0  0  0  0
    6.6798   48.6386  129.0303 C   0  0  0  0  0  0  0  0  0  0  0  0
    7.1462   47.4204  129.7996 C   0  0  0  0  0  0  0  0  0  0  0  0
    8.5521   47.5893  130.2695 C   0  0  0  0  0  0  0  0  0  0  0  0
    9.4758   47.3892  129.0867 C   0  0  0  0  0  0  0  0  0  0  0  0
   10.4158   45.5899  132.8787 C   0  0  0  0  0  0  0  0  0  0  0  0
   11.7859   45.3860  133.4151 C   0  0  0  0  0  0  0  0  0  0  0  0
   11.6932   44.0244  134.0790 C   0  0  0  0  0  0  0  0  0  0  0  0
   10.4007   43.3966  133.6127 C   0  0  0  0  0  0  0  0  0  0  0  0
   10.5032   42.0445  133.3900 O   0  0  0  0  0  0  0  0  0  0  0  0
   10.3885   41.7593  132.4641 H   0  0  0  0  0  0  0  0  0  0  0  0
  2  1  1  0  0  0
  2  3  1  0  0  0
  3  4  1  0  0  0
  4  5  1  0  0  0
  5  6  1  0  0  0
  6  7  1  0  0  0
  7  8  1  0  0  0
  8  9  1  0  0  0
  9 10  2  0  0  0
 10 11  1  0  0  0
 11 12  2  0  0  0
 11 13  1  0  0  0
 13 14  1  0  0  0
 14 15  1  0  0  0
 15 16  1  0  0  0
  6 17  1  0  0  0
 17 18  1  0  0  0
 18 19  1  0  0  0
 19 20  1  0  0  0
 20 21  1  0  0  0
 17  2  1  0  0  0
 20  2  1  0  0  0
 15  5  1  0  0  0
 15  9  1  0  0  0
 21 22  1  0  0  0
M  END
> <minimizedAffinity>
-10.48237

> <CNNscore>
0.8653751016

> <CNNaffinity>
7.7765760422

> <CNN_VS>
6.7296552658

> <CNNaffinity_variance>
0.4668155313

$$$$
[H]OC1([H])C([H])([H])C([H])([H])[C@]2([H])[C@]1(C([H])([H])[H])C([H])([H])C([H])([H])[C@]1([H])[C@]3(C([H])([H])[H])C(=C([H])C(=O)C([H])([H])C3([H])[H])C([H])([H])C([H])([H])[C@@]21[H]


 22 25  0  0  0  0  0  0  0  0999 V2000
    6.4132   47.2189  129.8592 C   0  0  0  0  0  0  0  0  0  0  0  0
    7.8068   47.6792  129.5255 C   0  0  0  0  0  0  0  0  0  0  0  0
    8.6694   46.5579  129.0732 C   0  0  0  0  0  0  0  0  0  0  0  0
    8.7382   45.5399  130.1978 C   0  0  0  0  0  0  0  0  0  0  0  0
    9.3764   46.1738  131.4093 C   0  0  0  0  0  0  0  0  0  0  0  0
    8.6101   47.4027  131.8846 C   0  0  0  0  0  0  0  0  0  0  0  0
    9.5332   48.0845  132.9032 C   0  0  0  0  0  0  0  0  0  0  0  0
    9.8320   47.1659  134.0601 C   0  0  0  0  0  0  0  0  0  0  0  0
   10.3102   45.8513  133.6155 C   0  0  0  0  0  0  0  0  0  0  0  0
   11.3651   45.3034  134.2278 C   0  0  0  0  0  0  0  0  0  0  0  0
   11.8534   44.0125  133.8086 C   0  0  0  0  0  0  0  0  0  0  0  0
   13.0226   43.6425  134.0750 O   0  0  0  0  0  0  0  0  0  0  0  0
   10.9060   43.1404  133.0458 C   0  0  0  0  0  0  0  0  0  0  0  0
   10.3322   44.0037  131.9420 C   0  0  0  0  0  0  0  0  0  0  0  0
    9.6059   45.1796  132.5042 C   0  0  0  0  0  0  0  0  0  0  0  0
    8.2718   44.7031  133.0384 C   0  0  0  0  0  0  0  0  0  0  0  0
    8.4951   48.3257  130.7300 C   0  0  0  0  0  0  0  0  0  0  0  0
    7.6444   49.5262  130.9336 C   0  0  0  0  0  0  0  0  0  0  0  0
    7.3605   49.9875  129.5160 C   0  0  0  0  0  0  0  0  0  0  0  0
    7.7810   48.8645  128.5972 C   0  0  0  0  0  0  0  0  0  0  0  0
    6.9396   48.6973  127.5237 O   0  0  0  0  0  0  0  0  0  0  0  0
    6.4466   47.8558  127.5007 H   0  0  0  0  0  0  0  0  0  0  0  0
  2  1  1  0  0  0
  2  3  1  0  0  0
  3  4  1  0  0  0
  4  5  1  0  0  0
  5  6  1  0  0  0
  6  7  1  0  0  0
  7  8  1  0  0  0
  8  9  1  0  0  0
  9 10  2  0  0  0
 10 11  1  0  0  0
 11 12  2  0  0  0
 11 13  1  0  0  0
 13 14  1  0  0  0
 14 15  1  0  0  0
 15 16  1  0  0  0
  6 17  1  0  0  0
 17 18  1  0  0  0
 18 19  1  0  0  0
 19 20  1  0  0  0
 20 21  1  0  0  0
 17  2  1  0  0  0
 20  2  1  0  0  0
 15  5  1  0  0  0
 15  9  1  0  0  0
 21 22  1  0  0  0
M  END
> <minimizedAffinity>
-9.13261

> <CNNscore>
0.5869768858

> <CNNaffinity>
7.2598981857

> <CNN_VS>
4.2613925934

> <CNNaffinity_variance>
0.2199294865

$$$$
[H]OC1([H])C([H])([H])C([H])([H])[C@]2([H])[C@]1(C([H])([H])[H])C([H])([H])C([H])([H])[C@]1([H])[C@]3(C([H])([H])[H])C(=C([H])C(=O)C([H])([H])C3([H])[H])C([H])([H])C([H])([H])[C@@]21[H]


 22 25  0  0  0  0  0  0  0  0999 V2000
    8.9032   48.8674  129.0801 C   0  0  0  0  0  0  0  0  0  0  0  0
    8.0931   48.8304  130.3481 C   0  0  0  0  0  0  0  0  0  0  0  0
    8.9172   49.1426  131.5437 C   0  0  0  0  0  0  0  0  0  0  0  0
   10.0238   48.1063  131.6304 C   0  0  0  0  0  0  0  0  0  0  0  0
    9.4155   46.7378  131.8147 C   0  0  0  0  0  0  0  0  0  0  0  0
    8.4680   46.3732  130.6776 C   0  0  0  0  0  0  0  0  0  0  0  0
    7.7230   45.1212  131.1592 C   0  0  0  0  0  0  0  0  0  0  0  0
    8.6842   43.9925  131.4308 C   0  0  0  0  0  0  0  0  0  0  0  0
    9.7851   44.4011  132.3114 C   0  0  0  0  0  0  0  0  0  0  0  0
   10.1447   43.5965  133.3171 C   0  0  0  0  0  0  0  0  0  0  0  0
   11.2236   43.9765  134.1958 C   0  0  0  0  0  0  0  0  0  0  0  0
   11.3416   43.4680  135.3369 O   0  0  0  0  0  0  0  0  0  0  0  0
   12.1898   44.9994  133.6857 C   0  0  0  0  0  0  0  0  0  0  0  0
   11.3526   46.1453  133.1575 C   0  0  0  0  0  0  0  0  0  0  0  0
   10.4579   45.6908  132.0534 C   0  0  0  0  0  0  0  0  0  0  0  0
   11.2947   45.5204  130.8032 C   0  0  0  0  0  0  0  0  0  0  0  0
    7.4602   47.4560  130.5779 C   0  0  0  0  0  0  0  0  0  0  0  0
    6.5258   47.3767  129.4259 C   0  0  0  0  0  0  0  0  0  0  0  0
    5.9696   48.7861  129.3401 C   0  0  0  0  0  0  0  0  0  0  0  0
    6.8399   49.6548  130.2177 C   0  0  0  0  0  0  0  0  0  0  0  0
    7.0626   50.9054  129.6935 O   0  0  0  0  0  0  0  0  0  0  0  0
    7.9861   51.1018  129.4479 H   0  0  0  0  0  0  0  0  0  0  0  0
  2  1  1  0  0  0
  2  3  1  0  0  0
  3  4  1  0  0  0
  4  5  1  0  0  0
  5  6  1  0  0  0
  6  7  1  0  0  0
  7  8  1  0  0  0
  8  9  1  0  0  0
  9 10  2  0  0  0
 10 11  1  0  0  0
 11 12  2  0  0  0
 11 13  1  0  0  0
 13 14  1  0  0  0
 14 15  1  0  0  0
 15 16  1  0  0  0
  6 17  1  0  0  0
 17 18  1  0  0  0
 18 19  1  0  0  0
 19 20  1  0  0  0
 20 21  1  0  0  0
 17  2  1  0  0  0
 20  2  1  0  0  0
 15  5  1  0  0  0
 15  9  1  0  0  0
 21 22  1  0  0  0
M  END
> <minimizedAffinity>
-9.03690

> <CNNscore>
0.5203971267

> <CNNaffinity>
7.2131052017

> <CNN_VS>
3.7536792755

> <CNNaffinity_variance>
0.2806718946

$$$$
[H]OC1([H])C([H])([H])C([H])([H])[C@]2([H])[C@]1(C([H])([H])[H])C([H])([H])C([H])([H])[C@]1([H])[C@]3(C([H])([H])[H])C(=C([H])C(=O)C([H])([H])C3([H])[H])C([H])([H])C([H])([H])[C@@]21[H]


 22 25  0  0  0  0  0  0  0  0999 V2000
    6.2322   48.1728  129.8791 C   0  0  0  0  0  0  0  0  0  0  0  0
    7.4793   48.8910  129.4383 C   0  0  0  0  0  0  0  0  0  0  0  0
    8.1754   48.1733  128.3399 C   0  0  0  0  0  0  0  0  0  0  0  0
    8.5506   46.7929  128.8495 C   0  0  0  0  0  0  0  0  0  0  0  0
    9.5052   46.9295  130.0099 C   0  0  0  0  0  0  0  0  0  0  0  0
    8.9087   47.7458  131.1507 C   0  0  0  0  0  0  0  0  0  0  0  0
   10.0832   48.0400  132.0933 C   0  0  0  0  0  0  0  0  0  0  0  0
   10.6888   46.7626  132.6157 C   0  0  0  0  0  0  0  0  0  0  0  0
   11.0170   45.8226  131.5372 C   0  0  0  0  0  0  0  0  0  0  0  0
   12.1982   45.1963  131.5592 C   0  0  0  0  0  0  0  0  0  0  0  0
   12.5433   44.2681  130.5105 C   0  0  0  0  0  0  0  0  0  0  0  0
   13.7384   43.9607  130.2824 O   0  0  0  0  0  0  0  0  0  0  0  0
   11.4160   43.6923  129.7119 C   0  0  0  0  0  0  0  0  0  0  0  0
   10.5608   44.8654  129.2810 C   0  0  0  0  0  0  0  0  0  0  0  0
   10.0267   45.6020  130.4634 C   0  0  0  0  0  0  0  0  0  0  0  0
    8.8927   44.7921  131.0554 C   0  0  0  0  0  0  0  0  0  0  0  0
    8.4802   49.0477  130.5855 C   0  0  0  0  0  0  0  0  0  0  0  0
    7.7265   49.9425  131.5006 C   0  0  0  0  0  0  0  0  0  0  0  0
    7.0599   50.9197  130.5499 C   0  0  0  0  0  0  0  0  0  0  0  0
    7.2010   50.3444  129.1602 C   0  0  0  0  0  0  0  0  0  0  0  0
    6.0922   50.5460  128.3739 O   0  0  0  0  0  0  0  0  0  0  0  0
    5.6082   49.7404  128.1121 H   0  0  0  0  0  0  0  0  0  0  0  0
  2  1  1  0  0  0
  2  3  1  0  0  0
  3  4  1  0  0  0
  4  5  1  0  0  0
  5  6  1  0  0  0
  6  7  1  0  0  0
  7  8  1  0  0  0
  8  9  1  0  0  0
  9 10  2  0  0  0
 10 11  1  0  0  0
 11 12  2  0  0  0
 11 13  1  0  0  0
 13 14  1  0  0  0
 14 15  1  0  0  0
 15 16  1  0  0  0
  6 17  1  0  0  0
 17 18  1  0  0  0
 18 19  1  0  0  0
 19 20  1  0  0  0
 20 21  1  0  0  0
 17  2  1  0  0  0
 20  2  1  0  0  0
 15  5  1  0  0  0
 15  9  1  0  0  0
 21 22  1  0  0  0
M  END
> <minimizedAffinity>
-6.30816

> <CNNscore>
0.4929639399

> <CNNaffinity>
6.9890451431

> <CNN_VS>
3.4453473091

> <CNNaffinity_variance>
0.5730739832

$$$$
[H]OC1([H])C([H])([H])C([H])([H])[C@]2([H])[C@]1(C([H])([H])[H])C([H])([H])C([H])([H])[C@]1([H])[C@]3(C([H])([H])[H])C(=C([H])C(=O)C([H])([H])C3([H])[H])C([H])([H])C([H])([H])[C@@]21[H]


 22 25  0  0  0  0  0  0  0  0999 V2000
    7.5851   48.6457  130.8750 C   0  0  0  0  0  0  0  0  0  0  0  0
    7.1419   47.5042  129.9998 C   0  0  0  0  0  0  0  0  0  0  0  0
    6.6183   46.3645  130.7953 C   0  0  0  0  0  0  0  0  0  0  0  0
    7.7306   45.8855  131.7114 C   0  0  0  0  0  0  0  0  0  0  0  0
    8.8888   45.3936  130.8787 C   0  0  0  0  0  0  0  0  0  0  0  0
    9.4280   46.4753  129.9499 C   0  0  0  0  0  0  0  0  0  0  0  0
   10.3711   45.7448  128.9848 C   0  0  0  0  0  0  0  0  0  0  0  0
   11.4974   45.0782  129.7323 C   0  0  0  0  0  0  0  0  0  0  0  0
   11.0118   44.2386  130.8339 C   0  0  0  0  0  0  0  0  0  0  0  0
   11.5356   43.0196  131.0004 C   0  0  0  0  0  0  0  0  0  0  0  0
   11.0746   42.1760  132.0757 C   0  0  0  0  0  0  0  0  0  0  0  0
   11.2449   40.9331  132.0450 O   0  0  0  0  0  0  0  0  0  0  0  0
   10.3878   42.8485  133.2229 C   0  0  0  0  0  0  0  0  0  0  0  0
    9.3363   43.7528  132.6147 C   0  0  0  0  0  0  0  0  0  0  0  0
    9.9586   44.7729  131.7214 C   0  0  0  0  0  0  0  0  0  0  0  0
   10.5969   45.8376  132.5881 C   0  0  0  0  0  0  0  0  0  0  0  0
    8.2892   46.9695  129.1393 C   0  0  0  0  0  0  0  0  0  0  0  0
    8.5642   48.1427  128.2707 C   0  0  0  0  0  0  0  0  0  0  0  0
    7.1754   48.6683  127.9575 C   0  0  0  0  0  0  0  0  0  0  0  0
    6.2223   47.9812  128.9071 C   0  0  0  0  0  0  0  0  0  0  0  0
    5.2195   48.8043  129.3599 O   0  0  0  0  0  0  0  0  0  0  0  0
    5.2336   49.0008  130.3154 H   0  0  0  0  0  0  0  0  0  0  0  0
  2  1  1  0  0  0
  2  3  1  0  0  0
  3  4  1  0  0  0
  4  5  1  0  0  0
  5  6  1  0  0  0
  6  7  1  0  0  0
  7  8  1  0  0  0
  8  9  1  0  0  0
  9 10  2  0  0  0
 10 11  1  0  0  0
 11 12  2  0  0  0
 11 13  1  0  0  0
 13 14  1  0  0  0
 14 15  1  0  0  0
 15 16  1  0  0  0
  6 17  1  0  0  0
 17 18  1  0  0  0
 18 19  1  0  0  0
 19 20  1  0  0  0
 20 21  1  0  0  0
 17  2  1  0  0  0
 20  2  1  0  0  0
 15  5  1  0  0  0
 15  9  1  0  0  0
 21 22  1  0  0  0
M  END
> <minimizedAffinity>
-6.71965

> <CNNscore>
0.4861834943

> <CNNaffinity>
6.9429807663

> <CNN_VS>
3.3755626678

> <CNNaffinity_variance>
0.2658880353

$$$$
[H]OC1([H])C([H])([H])C([H])([H])[C@]2([H])[C@]1(C([H])([H])[H])C([H])([H])C([H])([H])[C@]1([H])[C@]3(C([H])([H])[H])C(=C([H])C(=O)C([H])([H])C3([H])[H])C([H])([H])C([H])([H])[C@@]21[H]


 22 25  0  0  0  0  0  0  0  0999 V2000
    9.2907   43.3650  134.3940 C   0  0  0  0  0  0  0  0  0  0  0  0
   10.4668   44.1662  133.9037 C   0  0  0  0  0  0  0  0  0  0  0  0
   10.2480   45.6270  134.0592 C   0  0  0  0  0  0  0  0  0  0  0  0
    9.0188   46.0028  133.2506 C   0  0  0  0  0  0  0  0  0  0  0  0
    9.2702   45.7109  131.7917 C   0  0  0  0  0  0  0  0  0  0  0  0
    9.6067   44.2441  131.5497 C   0  0  0  0  0  0  0  0  0  0  0  0
   10.1191   44.1810  130.1047 C   0  0  0  0  0  0  0  0  0  0  0  0
    9.0630   44.6492  129.1368 C   0  0  0  0  0  0  0  0  0  0  0  0
    8.5074   45.9552  129.5110 C   0  0  0  0  0  0  0  0  0  0  0  0
    8.3412   46.8851  128.5645 C   0  0  0  0  0  0  0  0  0  0  0  0
    7.7971   48.1760  128.9078 C   0  0  0  0  0  0  0  0  0  0  0  0
    7.9739   49.1733  128.1669 O   0  0  0  0  0  0  0  0  0  0  0  0
    7.0166   48.2698  130.1813 C   0  0  0  0  0  0  0  0  0  0  0  0
    7.8730   47.6244  131.2505 C   0  0  0  0  0  0  0  0  0  0  0  0
    8.1508   46.1953  130.9243 C   0  0  0  0  0  0  0  0  0  0  0  0
    6.9029   45.3897  131.2175 C   0  0  0  0  0  0  0  0  0  0  0  0
   10.7552   43.9043  132.4236 C   0  0  0  0  0  0  0  0  0  0  0  0
   11.1495   42.4726  132.4594 C   0  0  0  0  0  0  0  0  0  0  0  0
   11.9853   42.3804  133.7228 C   0  0  0  0  0  0  0  0  0  0  0  0
   11.7555   43.6587  134.4945 C   0  0  0  0  0  0  0  0  0  0  0  0
   11.6938   43.4686  135.8540 O   0  0  0  0  0  0  0  0  0  0  0  0
   10.8308   43.6573  136.2679 H   0  0  0  0  0  0  0  0  0  0  0  0
  2  1  1  0  0  0
  2  3  1  0  0  0
  3  4  1  0  0  0
  4  5  1  0  0  0
  5  6  1  0  0  0
  6  7  1  0  0  0
  7  8  1  0  0  0
  8  9  1  0  0  0
  9 10  2  0  0  0
 10 11  1  0  0  0
 11 12  2  0  0  0
 11 13  1  0  0  0
 13 14  1  0  0  0
 14 15  1  0  0  0
 15 16  1  0  0  0
  6 17  1  0  0  0
 17 18  1  0  0  0
 18 19  1  0  0  0
 19 20  1  0  0  0
 20 21  1  0  0  0
 17  2  1  0  0  0
 20  2  1  0  0  0
 15  5  1  0  0  0
 15  9  1  0  0  0
 21 22  1  0  0  0
M  END
> <minimizedAffinity>
-0.48713

> <CNNscore>
0.4257462025

> <CNNaffinity>
7.0235147476

> <CNN_VS>
2.9902346134

> <CNNaffinity_variance>
0.8459057808

$$$$
[H]OC1([H])C([H])([H])C([H])([H])[C@]2([H])[C@]1(C([H])([H])[H])C([H])([H])C([H])([H])[C@]1([H])[C@]3(C([H])([H])[H])C(=C([H])C(=O)C([H])([H])C3([H])[H])C([H])([H])C([H])([H])[C@@]21[H]


 22 25  0  0  0  0  0  0  0  0999 V2000
    8.3293   43.8789  129.2176 C   0  0  0  0  0  0  0  0  0  0  0  0
    9.7923   44.0370  128.9014 C   0  0  0  0  0  0  0  0  0  0  0  0
   10.6165   42.9786  129.5389 C   0  0  0  0  0  0  0  0  0  0  0  0
   10.4195   43.0762  131.0414 C   0  0  0  0  0  0  0  0  0  0  0  0
   10.9100   44.4187  131.5250 C   0  0  0  0  0  0  0  0  0  0  0  0
   10.1861   45.5738  130.8431 C   0  0  0  0  0  0  0  0  0  0  0  0
   10.9914   46.8273  131.2099 C   0  0  0  0  0  0  0  0  0  0  0  0
   11.0241   47.0298  132.7031 C   0  0  0  0  0  0  0  0  0  0  0  0
   11.4524   45.8213  133.4176 C   0  0  0  0  0  0  0  0  0  0  0  0
   12.3466   45.9340  134.4054 C   0  0  0  0  0  0  0  0  0  0  0  0
   12.7829   44.7607  135.1221 C   0  0  0  0  0  0  0  0  0  0  0  0
   13.8593   44.7565  135.7671 O   0  0  0  0  0  0  0  0  0  0  0  0
   11.8969   43.5561  135.0608 C   0  0  0  0  0  0  0  0  0  0  0  0
   11.5806   43.3381  133.5960 C   0  0  0  0  0  0  0  0  0  0  0  0
   10.8778   44.5204  133.0179 C   0  0  0  0  0  0  0  0  0  0  0  0
    9.4403   44.4976  133.4924 C   0  0  0  0  0  0  0  0  0  0  0  0
   10.3343   45.3860  129.3799 C   0  0  0  0  0  0  0  0  0  0  0  0
    9.5679   46.3225  128.5186 C   0  0  0  0  0  0  0  0  0  0  0  0
    9.5520   45.6156  127.1757 C   0  0  0  0  0  0  0  0  0  0  0  0
   10.0149   44.1986  127.4210 C   0  0  0  0  0  0  0  0  0  0  0  0
    9.3425   43.2692  126.6644 O   0  0  0  0  0  0  0  0  0  0  0  0
    8.7893   42.6392  127.1632 H   0  0  0  0  0  0  0  0  0  0  0  0
  2  1  1  0  0  0
  2  3  1  0  0  0
  3  4  1  0  0  0
  4  5  1  0  0  0
  5  6  1  0  0  0
  6  7  1  0  0  0
  7  8  1  0  0  0
  8  9  1  0  0  0
  9 10  2  0  0  0
 10 11  1  0  0  0
 11 12  2  0  0  0
 11 13  1  0  0  0
 13 14  1  0  0  0
 14 15  1  0  0  0
 15 16  1  0  0  0
  6 17  1  0  0  0
 17 18  1  0  0  0
 18 19  1  0  0  0
 19 20  1  0  0  0
 20 21  1  0  0  0
 17  2  1  0  0  0
 20  2  1  0  0  0
 15  5  1  0  0  0
 15  9  1  0  0  0
 21 22  1  0  0  0
M  END
> <minimizedAffinity>
8.60701

> <CNNscore>
0.4128717780

> <CNNaffinity>
6.8205704689

> <CNN_VS>
2.8160209656

> <CNNaffinity_variance>
0.9522678256

$$$$
[H]OC1([H])C([H])([H])C([H])([H])[C@]2([H])[C@]1(C([H])([H])[H])C([H])([H])C([H])([H])[C@]1([H])[C@]3(C([H])([H])[H])C(=C([H])C(=O)C([H])([H])C3([H])[H])C([H])([H])C([H])([H])[C@@]21[H]


 22 25  0  0  0  0  0  0  0  0999 V2000
    8.1605   43.0095  130.3209 C   0  0  0  0  0  0  0  0  0  0  0  0
    9.6145   43.3980  130.3284 C   0  0  0  0  0  0  0  0  0  0  0  0
   10.0904   43.7447  131.6920 C   0  0  0  0  0  0  0  0  0  0  0  0
    9.2608   44.9144  132.1916 C   0  0  0  0  0  0  0  0  0  0  0  0
    9.4815   46.1057  131.2924 C   0  0  0  0  0  0  0  0  0  0  0  0
    9.1145   45.8067  129.8434 C   0  0  0  0  0  0  0  0  0  0  0  0
    9.6703   46.9865  129.0349 C   0  0  0  0  0  0  0  0  0  0  0  0
    9.0509   48.2859  129.4813 C   0  0  0  0  0  0  0  0  0  0  0  0
    9.1379   48.4716  130.9347 C   0  0  0  0  0  0  0  0  0  0  0  0
    9.5147   49.6610  131.4157 C   0  0  0  0  0  0  0  0  0  0  0  0
    9.6077   49.8676  132.8402 C   0  0  0  0  0  0  0  0  0  0  0  0
   10.2983   50.8003  133.3176 O   0  0  0  0  0  0  0  0  0  0  0  0
    8.8464   48.9232  133.7168 C   0  0  0  0  0  0  0  0  0  0  0  0
    9.1980   47.5289  133.2418 C   0  0  0  0  0  0  0  0  0  0  0  0
    8.8048   47.3336  131.8159 C   0  0  0  0  0  0  0  0  0  0  0  0
    7.3038   47.1435  131.7586 C   0  0  0  0  0  0  0  0  0  0  0  0
    9.8838   44.6083  129.4310 C   0  0  0  0  0  0  0  0  0  0  0  0
    9.5581   44.0493  128.0939 C   0  0  0  0  0  0  0  0  0  0  0  0
   10.1319   42.6460  128.1617 C   0  0  0  0  0  0  0  0  0  0  0  0
   10.4552   42.3744  129.6122 C   0  0  0  0  0  0  0  0  0  0  0  0
   10.1853   41.0829  129.9961 O   0  0  0  0  0  0  0  0  0  0  0  0
    9.4762   40.9786  130.6578 H   0  0  0  0  0  0  0  0  0  0  0  0
  2  1  1  0  0  0
  2  3  1  0  0  0
  3  4  1  0  0  0
  4  5  1  0  0  0
  5  6  1  0  0  0
  6  7  1  0  0  0
  7  8  1  0  0  0
  8  9  1  0  0  0
  9 10  2  0  0  0
 10 11  1  0  0  0
 11 12  2  0  0  0
 11 13  1  0  0  0
 13 14  1  0  0  0
 14 15  1  0  0  0
 15 16  1  0  0  0
  6 17  1  0  0  0
 17 18  1  0  0  0
 18 19  1  0  0  0
 19 20  1  0  0  0
 20 21  1  0  0  0
 17  2  1  0  0  0
 20  2  1  0  0  0
 15  5  1  0  0  0
 15  9  1  0  0  0
 21 22  1  0  0  0
M  END
> <minimizedAffinity>
-0.98686

> <CNNscore>
0.3943890035

> <CNNaffinity>
6.9153528214

> <CNN_VS>
2.7273390293

> <CNNaffinity_variance>
1.0098454952

$$$$
[H]OC1([H])C([H])([H])C([H])([H])[C@]2([H])[C@]1(C([H])([H])[H])C([H])([H])C([H])([H])[C@]1([H])[C@]3(C([H])([H])[H])C(=C([H])C(=O)C([H])([H])C3([H])[H])C([H])([H])C([H])([H])[C@@]21[H]


 22 25  0  0  0  0  0  0  0  0999 V2000
   12.5589   45.4331  132.4840 C   0  0  0  0  0  0  0  0  0  0  0  0
   11.5166   44.3827  132.2092 C   0  0  0  0  0  0  0  0  0  0  0  0
   11.2574   44.2235  130.7554 C   0  0  0  0  0  0  0  0  0  0  0  0
   10.7708   45.5585  130.2199 C   0  0  0  0  0  0  0  0  0  0  0  0
    9.4744   45.9280  130.8978 C   0  0  0  0  0  0  0  0  0  0  0  0
    9.6229   46.0135  132.4124 C   0  0  0  0  0  0  0  0  0  0  0  0
    8.1896   46.0942  132.9543 C   0  0  0  0  0  0  0  0  0  0  0  0
    7.4791   47.3120  132.4217 C   0  0  0  0  0  0  0  0  0  0  0  0
    7.5653   47.4095  130.9597 C   0  0  0  0  0  0  0  0  0  0  0  0
    6.4657   47.7176  130.2639 C   0  0  0  0  0  0  0  0  0  0  0  0
    6.5255   47.8191  128.8263 C   0  0  0  0  0  0  0  0  0  0  0  0
    5.4889   47.7267  128.1250 O   0  0  0  0  0  0  0  0  0  0  0  0
    7.8734   48.0385  128.2140 C   0  0  0  0  0  0  0  0  0  0  0  0
    8.7901   47.0007  128.8272 C   0  0  0  0  0  0  0  0  0  0  0  0
    8.8680   47.1628  130.3083 C   0  0  0  0  0  0  0  0  0  0  0  0
    9.7553   48.3519  130.6102 C   0  0  0  0  0  0  0  0  0  0  0  0
   10.1806   44.7202  132.8754 C   0  0  0  0  0  0  0  0  0  0  0  0
   10.5514   44.6437  134.3117 C   0  0  0  0  0  0  0  0  0  0  0  0
   11.4737   43.4396  134.3624 C   0  0  0  0  0  0  0  0  0  0  0  0
   11.8311   43.1009  132.9342 C   0  0  0  0  0  0  0  0  0  0  0  0
   13.1351   42.6952  132.7824 O   0  0  0  0  0  0  0  0  0  0  0  0
   13.7023   43.2864  132.2528 H   0  0  0  0  0  0  0  0  0  0  0  0
  2  1  1  0  0  0
  2  3  1  0  0  0
  3  4  1  0  0  0
  4  5  1  0  0  0
  5  6  1  0  0  0
  6  7  1  0  0  0
  7  8  1  0  0  0
  8  9  1  0  0  0
  9 10  2  0  0  0
 10 11  1  0  0  0
 11 12  2  0  0  0
 11 13  1  0  0  0
 13 14  1  0  0  0
 14 15  1  0  0  0
 15 16  1  0  0  0
  6 17  1  0  0  0
 17 18  1  0  0  0
 18 19  1  0  0  0
 19 20  1  0  0  0
 20 21  1  0  0  0
 17  2  1  0  0  0
 20  2  1  0  0  0
 15  5  1  0  0  0
 15  9  1  0  0  0
 21 22  1  0  0  0
M  END
> <minimizedAffinity>
-5.05734

> <CNNscore>
0.3746960759

> <CNNaffinity>
7.0718584061

> <CNN_VS>
2.6497976780

> <CNNaffinity_variance>
0.6200922132

$$$$
