[H]Oc1c([H])c([H])c(C([H])([H])C([H])([H])N([H])c2nc(N(C([H])([H])c3c([H])c([H])c(N([H])C(=O)C([H])([H])c4c([H])c([H])c([H])c([H])c4[H])c([H])c3[H])C([H])([H])C([H])([H])[H])nc(N3C([H])([H])C([H])([H])OC([H])([H])C3([H])[H])n2)c([H])c1[H]


 45 49  0  0  0  0  0  0  0  0999 V2000
    7.6621   46.1423  130.2738 C   0  0  0  0  0  0  0  0  0  0  0  0
    7.9997   45.1919  129.3941 N   0  0  0  0  0  0  0  0  0  0  0  0
    8.6341   44.0443  129.6643 C   0  0  0  0  0  0  0  0  0  0  0  0
    8.9552   43.8495  130.9605 N   0  0  0  0  0  0  0  0  0  0  0  0
    8.6559   44.7493  131.9139 C   0  0  0  0  0  0  0  0  0  0  0  0
    8.0205   45.8755  131.5778 N   0  0  0  0  0  0  0  0  0  0  0  0
    9.0210   44.5561  133.2736 N   0  0  0  0  0  0  0  0  0  0  0  0
    9.0393   45.6251  134.2544 C   0  0  0  0  0  0  0  0  0  0  0  0
    9.8117   45.0843  135.4442 C   0  0  0  0  0  0  0  0  0  0  0  0
   11.0178   44.5502  135.0032 O   0  0  0  0  0  0  0  0  0  0  0  0
   10.8290   43.3724  134.2842 C   0  0  0  0  0  0  0  0  0  0  0  0
    9.4220   43.2428  133.7234 C   0  0  0  0  0  0  0  0  0  0  0  0
    8.9359   43.0906  128.6567 N   0  0  0  0  0  0  0  0  0  0  0  0
    8.2465   42.3715  128.4127 H   0  0  0  0  0  0  0  0  0  0  0  0
   10.2028   43.1425  127.9902 C   0  0  0  0  0  0  0  0  0  0  0  0
   10.8801   44.4767  128.0043 C   0  0  0  0  0  0  0  0  0  0  0  0
   11.4211   44.7931  129.3710 C   0  0  0  0  0  0  0  0  0  0  0  0
   12.1523   43.8729  130.0796 C   0  0  0  0  0  0  0  0  0  0  0  0
   12.6556   44.1539  131.3438 C   0  0  0  0  0  0  0  0  0  0  0  0
   12.4237   45.3831  131.9142 C   0  0  0  0  0  0  0  0  0  0  0  0
   12.9303   45.6708  133.1920 O   0  0  0  0  0  0  0  0  0  0  0  0
   11.6893   46.3263  131.2169 C   0  0  0  0  0  0  0  0  0  0  0  0
   11.2037   46.0160  129.9651 C   0  0  0  0  0  0  0  0  0  0  0  0
   13.8346   46.0793  133.3368 H   0  0  0  0  0  0  0  0  0  0  0  0
    7.0133   47.3450  129.9903 N   0  0  0  0  0  0  0  0  0  0  0  0
    4.6184   47.0720  129.6258 C   0  0  0  0  0  0  0  0  0  0  0  0
    5.9292   47.5025  129.0976 C   0  0  0  0  0  0  0  0  0  0  0  0
    7.5210   48.5436  130.6747 C   0  0  0  0  0  0  0  0  0  0  0  0
    7.3192   49.7666  129.8850 C   0  0  0  0  0  0  0  0  0  0  0  0
    6.8376   50.9273  130.4460 C   0  0  0  0  0  0  0  0  0  0  0  0
    6.6467   52.0801  129.7193 C   0  0  0  0  0  0  0  0  0  0  0  0
    6.9407   52.1292  128.3423 C   0  0  0  0  0  0  0  0  0  0  0  0
    7.4203   50.9605  127.8018 C   0  0  0  0  0  0  0  0  0  0  0  0
    7.6102   49.7887  128.5557 C   0  0  0  0  0  0  0  0  0  0  0  0
    6.7138   53.3377  127.6602 N   0  0  0  0  0  0  0  0  0  0  0  0
    7.5213   53.9843  126.7159 C   0  0  0  0  0  0  0  0  0  0  0  0
    8.6117   53.5185  126.3564 O   0  0  0  0  0  0  0  0  0  0  0  0
    5.8024   53.8290  127.8904 H   0  0  0  0  0  0  0  0  0  0  0  0
    7.0662   55.2716  126.1179 C   0  0  0  0  0  0  0  0  0  0  0  0
    7.4653   55.2705  124.6872 C   0  0  0  0  0  0  0  0  0  0  0  0
    8.4779   56.1231  124.2452 C   0  0  0  0  0  0  0  0  0  0  0  0
    8.8717   56.1417  122.9268 C   0  0  0  0  0  0  0  0  0  0  0  0
    8.2669   55.3159  122.0349 C   0  0  0  0  0  0  0  0  0  0  0  0
    7.2466   54.4379  122.4102 C   0  0  0  0  0  0  0  0  0  0  0  0
    6.8831   54.4525  123.7395 C   0  0  0  0  0  0  0  0  0  0  0  0
 26 27  1  0  0  0
 27 25  1  0  0  0
 25 28  1  0  0  0
 28 29  1  0  0  0
 29 30  2  0  0  0
 30 31  1  0  0  0
 31 32  2  0  0  0
 32 35  1  0  0  0
 35 36  1  0  0  0
 36 37  2  0  0  0
 36 39  1  0  0  0
 39 40  1  0  0  0
 40 41  2  0  0  0
 41 42  1  0  0  0
 42 43  2  0  0  0
 43 44  1  0  0  0
 44 45  2  0  0  0
 32 33  1  0  0  0
 33 34  2  0  0  0
 25  1  1  0  0  0
  1  2  2  0  0  0
  2  3  1  0  0  0
  3 13  1  0  0  0
 13 15  1  0  0  0
 15 16  1  0  0  0
 16 17  1  0  0  0
 17 18  2  0  0  0
 18 19  1  0  0  0
 19 20  2  0  0  0
 20 21  1  0  0  0
 20 22  1  0  0  0
 22 23  2  0  0  0
  3  4  2  0  0  0
  4  5  1  0  0  0
  5  6  2  0  0  0
  5  7  1  0  0  0
  7  8  1  0  0  0
  8  9  1  0  0  0
  9 10  1  0  0  0
 10 11  1  0  0  0
 11 12  1  0  0  0
 34 29  1  0  0  0
  6  1  1  0  0  0
 12  7  1  0  0  0
 45 40  1  0  0  0
 23 17  1  0  0  0
 35 38  1  0  0  0
 13 14  1  0  0  0
 21 24  1  0  0  0
M  END
> <minimizedAffinity>
-3.49588

> <CNNscore>
0.2532174289

> <CNNaffinity>
7.3812766075

> <CNN_VS>
1.8690679073

> <CNNaffinity_variance>
0.0547185428

$$$$
[H]Oc1c([H])c([H])c(C([H])([H])C([H])([H])N([H])c2nc(N(C([H])([H])c3c([H])c([H])c(N([H])C(=O)C([H])([H])c4c([H])c([H])c([H])c([H])c4[H])c([H])c3[H])C([H])([H])C([H])([H])[H])nc(N3C([H])([H])C([H])([H])OC([H])([H])C3([H])[H])n2)c([H])c1[H]


 45 49  0  0  0  0  0  0  0  0999 V2000
    8.0334   46.3538  130.7028 C   0  0  0  0  0  0  0  0  0  0  0  0
    7.7068   45.1156  130.3141 N   0  0  0  0  0  0  0  0  0  0  0  0
    8.2221   43.9714  130.7808 C   0  0  0  0  0  0  0  0  0  0  0  0
    9.1638   44.1063  131.7379 N   0  0  0  0  0  0  0  0  0  0  0  0
    9.5552   45.3105  132.1906 C   0  0  0  0  0  0  0  0  0  0  0  0
    9.0003   46.4150  131.6832 N   0  0  0  0  0  0  0  0  0  0  0  0
   10.5679   45.4517  133.1775 N   0  0  0  0  0  0  0  0  0  0  0  0
   11.9602   45.7092  132.8607 C   0  0  0  0  0  0  0  0  0  0  0  0
   12.7349   45.4314  134.1363 C   0  0  0  0  0  0  0  0  0  0  0  0
   12.3732   44.1823  134.6295 O   0  0  0  0  0  0  0  0  0  0  0  0
   11.0745   44.1819  135.1325 C   0  0  0  0  0  0  0  0  0  0  0  0
   10.2253   45.3125  134.5743 C   0  0  0  0  0  0  0  0  0  0  0  0
    7.7961   42.7015  130.3098 N   0  0  0  0  0  0  0  0  0  0  0  0
    6.8769   42.6050  129.8650 H   0  0  0  0  0  0  0  0  0  0  0  0
    8.6559   41.5658  130.4614 C   0  0  0  0  0  0  0  0  0  0  0  0
    9.8001   41.4955  129.4996 C   0  0  0  0  0  0  0  0  0  0  0  0
   10.2466   42.8716  129.0904 C   0  0  0  0  0  0  0  0  0  0  0  0
   11.2811   43.5062  129.7314 C   0  0  0  0  0  0  0  0  0  0  0  0
   11.7009   44.7783  129.3627 C   0  0  0  0  0  0  0  0  0  0  0  0
   11.0734   45.4325  128.3291 C   0  0  0  0  0  0  0  0  0  0  0  0
   11.4946   46.7186  127.9538 O   0  0  0  0  0  0  0  0  0  0  0  0
   10.0285   44.8108  127.6684 C   0  0  0  0  0  0  0  0  0  0  0  0
    9.6359   43.5489  128.0588 C   0  0  0  0  0  0  0  0  0  0  0  0
   12.2023   46.8761  127.2610 H   0  0  0  0  0  0  0  0  0  0  0  0
    7.5066   47.5472  130.2066 N   0  0  0  0  0  0  0  0  0  0  0  0
    5.1957   47.0775  129.5882 C   0  0  0  0  0  0  0  0  0  0  0  0
    6.5044   47.6529  129.2158 C   0  0  0  0  0  0  0  0  0  0  0  0
    8.0609   48.7916  130.7603 C   0  0  0  0  0  0  0  0  0  0  0  0
    7.6862   49.9720  129.9689 C   0  0  0  0  0  0  0  0  0  0  0  0
    7.7233   49.9710  128.5932 C   0  0  0  0  0  0  0  0  0  0  0  0
    7.3725   51.0678  127.8397 C   0  0  0  0  0  0  0  0  0  0  0  0
    6.9504   52.2651  128.4506 C   0  0  0  0  0  0  0  0  0  0  0  0
    6.9202   52.2452  129.8241 C   0  0  0  0  0  0  0  0  0  0  0  0
    7.2821   51.1176  130.5824 C   0  0  0  0  0  0  0  0  0  0  0  0
    6.6148   53.3488  127.6197 N   0  0  0  0  0  0  0  0  0  0  0  0
    7.4507   54.1491  126.8308 C   0  0  0  0  0  0  0  0  0  0  0  0
    8.6757   53.9698  126.7823 O   0  0  0  0  0  0  0  0  0  0  0  0
    5.5836   53.5946  127.5822 H   0  0  0  0  0  0  0  0  0  0  0  0
    6.8611   55.2527  126.0206 C   0  0  0  0  0  0  0  0  0  0  0  0
    7.4423   55.1708  124.6561 C   0  0  0  0  0  0  0  0  0  0  0  0
    6.9683   54.2189  123.7523 C   0  0  0  0  0  0  0  0  0  0  0  0
    7.4845   54.1217  122.4804 C   0  0  0  0  0  0  0  0  0  0  0  0
    8.4739   54.9664  122.0922 C   0  0  0  0  0  0  0  0  0  0  0  0
    8.9943   55.9422  122.9466 C   0  0  0  0  0  0  0  0  0  0  0  0
    8.4492   56.0040  124.2109 C   0  0  0  0  0  0  0  0  0  0  0  0
 26 27  1  0  0  0
 27 25  1  0  0  0
 25 28  1  0  0  0
 28 29  1  0  0  0
 29 30  2  0  0  0
 30 31  1  0  0  0
 31 32  2  0  0  0
 32 35  1  0  0  0
 35 36  1  0  0  0
 36 37  2  0  0  0
 36 39  1  0  0  0
 39 40  1  0  0  0
 40 41  2  0  0  0
 41 42  1  0  0  0
 42 43  2  0  0  0
 43 44  1  0  0  0
 44 45  2  0  0  0
 32 33  1  0  0  0
 33 34  2  0  0  0
 25  1  1  0  0  0
  1  2  2  0  0  0
  2  3  1  0  0  0
  3 13  1  0  0  0
 13 15  1  0  0  0
 15 16  1  0  0  0
 16 17  1  0  0  0
 17 18  2  0  0  0
 18 19  1  0  0  0
 19 20  2  0  0  0
 20 21  1  0  0  0
 20 22  1  0  0  0
 22 23  2  0  0  0
  3  4  2  0  0  0
  4  5  1  0  0  0
  5  6  2  0  0  0
  5  7  1  0  0  0
  7  8  1  0  0  0
  8  9  1  0  0  0
  9 10  1  0  0  0
 10 11  1  0  0  0
 11 12  1  0  0  0
 34 29  1  0  0  0
  6  1  1  0  0  0
 12  7  1  0  0  0
 45 40  1  0  0  0
 23 17  1  0  0  0
 35 38  1  0  0  0
 13 14  1  0  0  0
 21 24  1  0  0  0
M  END
> <minimizedAffinity>
0.72766

> <CNNscore>
0.2266841978

> <CNNaffinity>
7.2119779587

> <CNN_VS>
1.6348414421

> <CNNaffinity_variance>
0.0736841485

$$$$
[H]Oc1c([H])c([H])c(C([H])([H])C([H])([H])N([H])c2nc(N(C([H])([H])c3c([H])c([H])c(N([H])C(=O)C([H])([H])c4c([H])c([H])c([H])c([H])c4[H])c([H])c3[H])C([H])([H])C([H])([H])[H])nc(N3C([H])([H])C([H])([H])OC([H])([H])C3([H])[H])n2)c([H])c1[H]


 45 49  0  0  0  0  0  0  0  0999 V2000
    8.4602   46.9960  129.8660 C   0  0  0  0  0  0  0  0  0  0  0  0
    9.1222   46.4016  128.8663 N   0  0  0  0  0  0  0  0  0  0  0  0
   10.2911   45.7552  128.9572 C   0  0  0  0  0  0  0  0  0  0  0  0
   10.8368   45.7127  130.1907 N   0  0  0  0  0  0  0  0  0  0  0  0
   10.2433   46.2818  131.2547 C   0  0  0  0  0  0  0  0  0  0  0  0
    9.0758   46.9119  131.0964 N   0  0  0  0  0  0  0  0  0  0  0  0
   10.8338   46.2615  132.5471 N   0  0  0  0  0  0  0  0  0  0  0  0
   12.0557   45.5423  132.8548 C   0  0  0  0  0  0  0  0  0  0  0  0
   12.1319   45.4815  134.3698 C   0  0  0  0  0  0  0  0  0  0  0  0
   10.9240   45.0081  134.8708 O   0  0  0  0  0  0  0  0  0  0  0  0
    9.9008   45.9408  134.7193 C   0  0  0  0  0  0  0  0  0  0  0  0
   10.1922   46.9648  133.6341 C   0  0  0  0  0  0  0  0  0  0  0  0
   10.9076   45.1437  127.8338 N   0  0  0  0  0  0  0  0  0  0  0  0
   11.3651   45.7258  127.1240 H   0  0  0  0  0  0  0  0  0  0  0  0
   10.8838   43.7174  127.7029 C   0  0  0  0  0  0  0  0  0  0  0  0
    9.6349   43.0503  128.1871 C   0  0  0  0  0  0  0  0  0  0  0  0
    9.6390   42.9188  129.6848 C   0  0  0  0  0  0  0  0  0  0  0  0
    8.5034   43.1383  130.4236 C   0  0  0  0  0  0  0  0  0  0  0  0
    8.4961   43.0212  131.8080 C   0  0  0  0  0  0  0  0  0  0  0  0
    9.6502   42.6766  132.4710 C   0  0  0  0  0  0  0  0  0  0  0  0
    9.6470   42.5577  133.8703 O   0  0  0  0  0  0  0  0  0  0  0  0
   10.8067   42.4500  131.7456 C   0  0  0  0  0  0  0  0  0  0  0  0
   10.7806   42.5748  130.3735 C   0  0  0  0  0  0  0  0  0  0  0  0
    9.4445   41.6953  134.3402 H   0  0  0  0  0  0  0  0  0  0  0  0
    7.2487   47.6820  129.7689 N   0  0  0  0  0  0  0  0  0  0  0  0
    4.8828   47.1120  129.6247 C   0  0  0  0  0  0  0  0  0  0  0  0
    6.1687   47.3262  128.9297 C   0  0  0  0  0  0  0  0  0  0  0  0
    7.1036   48.8826  130.6056 C   0  0  0  0  0  0  0  0  0  0  0  0
    7.0608   50.1175  129.8098 C   0  0  0  0  0  0  0  0  0  0  0  0
    6.6740   51.3223  130.3509 C   0  0  0  0  0  0  0  0  0  0  0  0
    6.6322   52.4864  129.6184 C   0  0  0  0  0  0  0  0  0  0  0  0
    6.9902   52.5019  128.2559 C   0  0  0  0  0  0  0  0  0  0  0  0
    7.3733   51.2894  127.7352 C   0  0  0  0  0  0  0  0  0  0  0  0
    7.4109   50.1066  128.4947 C   0  0  0  0  0  0  0  0  0  0  0  0
    6.9163   53.7252  127.5665 N   0  0  0  0  0  0  0  0  0  0  0  0
    7.7182   54.1999  126.5208 C   0  0  0  0  0  0  0  0  0  0  0  0
    8.6557   53.5343  126.0590 O   0  0  0  0  0  0  0  0  0  0  0  0
    6.1437   54.3810  127.8795 H   0  0  0  0  0  0  0  0  0  0  0  0
    7.4457   55.5442  125.9374 C   0  0  0  0  0  0  0  0  0  0  0  0
    7.7044   55.4632  124.4770 C   0  0  0  0  0  0  0  0  0  0  0  0
    8.7060   56.2465  123.9019 C   0  0  0  0  0  0  0  0  0  0  0  0
    8.9712   56.1901  122.5528 C   0  0  0  0  0  0  0  0  0  0  0  0
    8.2475   55.3573  121.7617 C   0  0  0  0  0  0  0  0  0  0  0  0
    7.2306   54.5461  122.2724 C   0  0  0  0  0  0  0  0  0  0  0  0
    6.9982   54.6346  123.6279 C   0  0  0  0  0  0  0  0  0  0  0  0
 26 27  1  0  0  0
 27 25  1  0  0  0
 25 28  1  0  0  0
 28 29  1  0  0  0
 29 30  2  0  0  0
 30 31  1  0  0  0
 31 32  2  0  0  0
 32 35  1  0  0  0
 35 36  1  0  0  0
 36 37  2  0  0  0
 36 39  1  0  0  0
 39 40  1  0  0  0
 40 41  2  0  0  0
 41 42  1  0  0  0
 42 43  2  0  0  0
 43 44  1  0  0  0
 44 45  2  0  0  0
 32 33  1  0  0  0
 33 34  2  0  0  0
 25  1  1  0  0  0
  1  2  2  0  0  0
  2  3  1  0  0  0
  3 13  1  0  0  0
 13 15  1  0  0  0
 15 16  1  0  0  0
 16 17  1  0  0  0
 17 18  2  0  0  0
 18 19  1  0  0  0
 19 20  2  0  0  0
 20 21  1  0  0  0
 20 22  1  0  0  0
 22 23  2  0  0  0
  3  4  2  0  0  0
  4  5  1  0  0  0
  5  6  2  0  0  0
  5  7  1  0  0  0
  7  8  1  0  0  0
  8  9  1  0  0  0
  9 10  1  0  0  0
 10 11  1  0  0  0
 11 12  1  0  0  0
 34 29  1  0  0  0
  6  1  1  0  0  0
 12  7  1  0  0  0
 45 40  1  0  0  0
 23 17  1  0  0  0
 35 38  1  0  0  0
 13 14  1  0  0  0
 21 24  1  0  0  0
M  END
> <minimizedAffinity>
-3.25482

> <CNNscore>
0.1761783957

> <CNNaffinity>
7.3331627846

> <CNN_VS>
1.2919448614

> <CNNaffinity_variance>
0.1619718373

$$$$
[H]Oc1c([H])c([H])c(C([H])([H])C([H])([H])N([H])c2nc(N(C([H])([H])c3c([H])c([H])c(N([H])C(=O)C([H])([H])c4c([H])c([H])c([H])c([H])c4[H])c([H])c3[H])C([H])([H])C([H])([H])[H])nc(N3C([H])([H])C([H])([H])OC([H])([H])C3([H])[H])n2)c([H])c1[H]


 45 49  0  0  0  0  0  0  0  0999 V2000
   12.2710   43.8249  132.8606 C   0  0  0  0  0  0  0  0  0  0  0  0
   12.6208   43.2514  134.0180 N   0  0  0  0  0  0  0  0  0  0  0  0
   12.3026   43.6768  135.2470 C   0  0  0  0  0  0  0  0  0  0  0  0
   11.5541   44.7985  135.2975 N   0  0  0  0  0  0  0  0  0  0  0  0
   11.1558   45.4426  134.1863 C   0  0  0  0  0  0  0  0  0  0  0  0
   11.5070   44.9650  132.9889 N   0  0  0  0  0  0  0  0  0  0  0  0
   10.3925   46.6399  134.2420 N   0  0  0  0  0  0  0  0  0  0  0  0
    9.0000   46.6803  134.6476 C   0  0  0  0  0  0  0  0  0  0  0  0
    8.4841   48.0448  134.2275 C   0  0  0  0  0  0  0  0  0  0  0  0
    8.8065   48.2656  132.8927 O   0  0  0  0  0  0  0  0  0  0  0  0
   10.1742   48.4617  132.7172 C   0  0  0  0  0  0  0  0  0  0  0  0
   11.0028   47.8919  133.8573 C   0  0  0  0  0  0  0  0  0  0  0  0
   12.7136   42.9861  136.4174 N   0  0  0  0  0  0  0  0  0  0  0  0
   12.0094   42.5891  137.0486 H   0  0  0  0  0  0  0  0  0  0  0  0
   14.1103   42.8508  136.7053 C   0  0  0  0  0  0  0  0  0  0  0  0
   14.4460   41.9199  137.8277 C   0  0  0  0  0  0  0  0  0  0  0  0
   15.8829   42.0714  138.2433 C   0  0  0  0  0  0  0  0  0  0  0  0
   16.8392   41.1702  137.8470 C   0  0  0  0  0  0  0  0  0  0  0  0
   18.1695   41.2996  138.2264 C   0  0  0  0  0  0  0  0  0  0  0  0
   18.5546   42.3539  139.0202 C   0  0  0  0  0  0  0  0  0  0  0  0
   19.8982   42.4878  139.4062 O   0  0  0  0  0  0  0  0  0  0  0  0
   17.6068   43.2748  139.4307 C   0  0  0  0  0  0  0  0  0  0  0  0
   16.2954   43.1178  139.0374 C   0  0  0  0  0  0  0  0  0  0  0  0
   20.5676   43.0047  138.8674 H   0  0  0  0  0  0  0  0  0  0  0  0
   12.6143   43.3896  131.5798 N   0  0  0  0  0  0  0  0  0  0  0  0
   13.8785   44.4604  129.7914 C   0  0  0  0  0  0  0  0  0  0  0  0
   13.8747   43.5623  130.9644 C   0  0  0  0  0  0  0  0  0  0  0  0
   11.5613   42.7082  130.8122 C   0  0  0  0  0  0  0  0  0  0  0  0
   10.3679   43.5470  130.6325 C   0  0  0  0  0  0  0  0  0  0  0  0
   10.4153   44.7524  129.9701 C   0  0  0  0  0  0  0  0  0  0  0  0
    9.3055   45.5464  129.7921 C   0  0  0  0  0  0  0  0  0  0  0  0
    8.0453   45.1567  130.2871 C   0  0  0  0  0  0  0  0  0  0  0  0
    8.0196   43.9506  130.9449 C   0  0  0  0  0  0  0  0  0  0  0  0
    9.1615   43.1490  131.1206 C   0  0  0  0  0  0  0  0  0  0  0  0
    6.9560   46.0206  130.0762 N   0  0  0  0  0  0  0  0  0  0  0  0
    6.5900   46.7138  128.9155 C   0  0  0  0  0  0  0  0  0  0  0  0
    7.2460   46.6310  127.8677 O   0  0  0  0  0  0  0  0  0  0  0  0
    6.3197   46.1672  130.9121 H   0  0  0  0  0  0  0  0  0  0  0  0
    5.3770   47.5799  128.9283 C   0  0  0  0  0  0  0  0  0  0  0  0
    5.7776   48.9097  129.4550 C   0  0  0  0  0  0  0  0  0  0  0  0
    7.1267   49.2644  129.4996 C   0  0  0  0  0  0  0  0  0  0  0  0
    7.5278   50.4904  129.9786 C   0  0  0  0  0  0  0  0  0  0  0  0
    6.5969   51.3761  130.4169 C   0  0  0  0  0  0  0  0  0  0  0  0
    5.2301   51.0852  130.4003 C   0  0  0  0  0  0  0  0  0  0  0  0
    4.8728   49.8464  129.9135 C   0  0  0  0  0  0  0  0  0  0  0  0
 26 27  1  0  0  0
 27 25  1  0  0  0
 25 28  1  0  0  0
 28 29  1  0  0  0
 29 30  2  0  0  0
 30 31  1  0  0  0
 31 32  2  0  0  0
 32 35  1  0  0  0
 35 36  1  0  0  0
 36 37  2  0  0  0
 36 39  1  0  0  0
 39 40  1  0  0  0
 40 41  2  0  0  0
 41 42  1  0  0  0
 42 43  2  0  0  0
 43 44  1  0  0  0
 44 45  2  0  0  0
 32 33  1  0  0  0
 33 34  2  0  0  0
 25  1  1  0  0  0
  1  2  2  0  0  0
  2  3  1  0  0  0
  3 13  1  0  0  0
 13 15  1  0  0  0
 15 16  1  0  0  0
 16 17  1  0  0  0
 17 18  2  0  0  0
 18 19  1  0  0  0
 19 20  2  0  0  0
 20 21  1  0  0  0
 20 22  1  0  0  0
 22 23  2  0  0  0
  3  4  2  0  0  0
  4  5  1  0  0  0
  5  6  2  0  0  0
  5  7  1  0  0  0
  7  8  1  0  0  0
  8  9  1  0  0  0
  9 10  1  0  0  0
 10 11  1  0  0  0
 11 12  1  0  0  0
 34 29  1  0  0  0
  6  1  1  0  0  0
 12  7  1  0  0  0
 45 40  1  0  0  0
 23 17  1  0  0  0
 35 38  1  0  0  0
 13 14  1  0  0  0
 21 24  1  0  0  0
M  END
> <minimizedAffinity>
10.26200

> <CNNscore>
0.1721486896

> <CNNaffinity>
7.5771074295

> <CNN_VS>
1.3043891191

> <CNNaffinity_variance>
0.2844659388

$$$$
[H]Oc1c([H])c([H])c(C([H])([H])C([H])([H])N([H])c2nc(N(C([H])([H])c3c([H])c([H])c(N([H])C(=O)C([H])([H])c4c([H])c([H])c([H])c([H])c4[H])c([H])c3[H])C([H])([H])C([H])([H])[H])nc(N3C([H])([H])C([H])([H])OC([H])([H])C3([H])[H])n2)c([H])c1[H]


 45 49  0  0  0  0  0  0  0  0999 V2000
   12.8214   44.8182  131.0531 C   0  0  0  0  0  0  0  0  0  0  0  0
   12.9174   44.1523  132.2100 N   0  0  0  0  0  0  0  0  0  0  0  0
   12.4257   44.5368  133.3945 C   0  0  0  0  0  0  0  0  0  0  0  0
   11.7726   45.7176  133.3966 N   0  0  0  0  0  0  0  0  0  0  0  0
   11.6267   46.4555  132.2819 C   0  0  0  0  0  0  0  0  0  0  0  0
   12.1410   46.0145  131.1303 N   0  0  0  0  0  0  0  0  0  0  0  0
   10.9643   47.7127  132.2919 N   0  0  0  0  0  0  0  0  0  0  0  0
   10.3702   48.2920  133.4821 C   0  0  0  0  0  0  0  0  0  0  0  0
    9.4799   49.4210  132.9949 C   0  0  0  0  0  0  0  0  0  0  0  0
    8.6483   48.9463  131.9863 O   0  0  0  0  0  0  0  0  0  0  0  0
    9.3559   48.6770  130.8173 C   0  0  0  0  0  0  0  0  0  0  0  0
   10.8406   48.4622  131.0627 C   0  0  0  0  0  0  0  0  0  0  0  0
   12.5701   43.7480  134.5662 N   0  0  0  0  0  0  0  0  0  0  0  0
   13.4547   43.2615  134.7473 H   0  0  0  0  0  0  0  0  0  0  0  0
   11.4765   43.6392  135.4850 C   0  0  0  0  0  0  0  0  0  0  0  0
   10.2518   44.4170  135.1184 C   0  0  0  0  0  0  0  0  0  0  0  0
    9.5729   43.8202  133.9170 C   0  0  0  0  0  0  0  0  0  0  0  0
    8.6189   44.5159  133.2174 C   0  0  0  0  0  0  0  0  0  0  0  0
    7.9840   43.9737  132.1069 C   0  0  0  0  0  0  0  0  0  0  0  0
    8.3094   42.7066  131.6843 C   0  0  0  0  0  0  0  0  0  0  0  0
    7.6696   42.1548  130.5626 O   0  0  0  0  0  0  0  0  0  0  0  0
    9.2693   41.9875  132.3746 C   0  0  0  0  0  0  0  0  0  0  0  0
    9.8801   42.5538  133.4724 C   0  0  0  0  0  0  0  0  0  0  0  0
    8.0237   42.2607  129.6303 H   0  0  0  0  0  0  0  0  0  0  0  0
   13.3459   44.4246  129.8212 N   0  0  0  0  0  0  0  0  0  0  0  0
   15.2420   43.4531  128.6361 C   0  0  0  0  0  0  0  0  0  0  0  0
   14.6897   44.5818  129.4131 C   0  0  0  0  0  0  0  0  0  0  0  0
   12.4061   43.8089  128.8724 C   0  0  0  0  0  0  0  0  0  0  0  0
   11.1256   44.5274  128.8071 C   0  0  0  0  0  0  0  0  0  0  0  0
   11.0547   45.8675  128.5019 C   0  0  0  0  0  0  0  0  0  0  0  0
    9.8628   46.5519  128.4345 C   0  0  0  0  0  0  0  0  0  0  0  0
    8.6363   45.9027  128.6780 C   0  0  0  0  0  0  0  0  0  0  0  0
    8.7290   44.5657  128.9807 C   0  0  0  0  0  0  0  0  0  0  0  0
    9.9539   43.8781  129.0471 C   0  0  0  0  0  0  0  0  0  0  0  0
    7.4575   46.6653  128.5999 N   0  0  0  0  0  0  0  0  0  0  0  0
    6.4004   46.7539  129.5146 C   0  0  0  0  0  0  0  0  0  0  0  0
    6.3950   46.1129  130.5749 O   0  0  0  0  0  0  0  0  0  0  0  0
    7.3536   47.2595  127.7274 H   0  0  0  0  0  0  0  0  0  0  0  0
    5.2418   47.6426  129.2151 C   0  0  0  0  0  0  0  0  0  0  0  0
    5.7020   49.0476  129.3578 C   0  0  0  0  0  0  0  0  0  0  0  0
    6.7973   49.5007  128.6212 C   0  0  0  0  0  0  0  0  0  0  0  0
    7.2443   50.7977  128.7295 C   0  0  0  0  0  0  0  0  0  0  0  0
    6.6102   51.6573  129.5675 C   0  0  0  0  0  0  0  0  0  0  0  0
    5.5079   51.2692  130.3338 C   0  0  0  0  0  0  0  0  0  0  0  0
    5.0944   49.9619  130.1952 C   0  0  0  0  0  0  0  0  0  0  0  0
 26 27  1  0  0  0
 27 25  1  0  0  0
 25 28  1  0  0  0
 28 29  1  0  0  0
 29 30  2  0  0  0
 30 31  1  0  0  0
 31 32  2  0  0  0
 32 35  1  0  0  0
 35 36  1  0  0  0
 36 37  2  0  0  0
 36 39  1  0  0  0
 39 40  1  0  0  0
 40 41  2  0  0  0
 41 42  1  0  0  0
 42 43  2  0  0  0
 43 44  1  0  0  0
 44 45  2  0  0  0
 32 33  1  0  0  0
 33 34  2  0  0  0
 25  1  1  0  0  0
  1  2  2  0  0  0
  2  3  1  0  0  0
  3 13  1  0  0  0
 13 15  1  0  0  0
 15 16  1  0  0  0
 16 17  1  0  0  0
 17 18  2  0  0  0
 18 19  1  0  0  0
 19 20  2  0  0  0
 20 21  1  0  0  0
 20 22  1  0  0  0
 22 23  2  0  0  0
  3  4  2  0  0  0
  4  5  1  0  0  0
  5  6  2  0  0  0
  5  7  1  0  0  0
  7  8  1  0  0  0
  8  9  1  0  0  0
  9 10  1  0  0  0
 10 11  1  0  0  0
 11 12  1  0  0  0
 34 29  1  0  0  0
  6  1  1  0  0  0
 12  7  1  0  0  0
 45 40  1  0  0  0
 23 17  1  0  0  0
 35 38  1  0  0  0
 13 14  1  0  0  0
 21 24  1  0  0  0
M  END
> <minimizedAffinity>
2.09014

> <CNNscore>
0.1693640053

> <CNNaffinity>
7.4806532860

> <CNN_VS>
1.2669533491

> <CNNaffinity_variance>
0.5370915532

$$$$
[H]Oc1c([H])c([H])c(C([H])([H])C([H])([H])N([H])c2nc(N(C([H])([H])c3c([H])c([H])c(N([H])C(=O)C([H])([H])c4c([H])c([H])c([H])c([H])c4[H])c([H])c3[H])C([H])([H])C([H])([H])[H])nc(N3C([H])([H])C([H])([H])OC([H])([H])C3([H])[H])n2)c([H])c1[H]


 45 49  0  0  0  0  0  0  0  0999 V2000
    7.4988   47.1257  130.3580 C   0  0  0  0  0  0  0  0  0  0  0  0
    7.6233   46.0390  129.5868 N   0  0  0  0  0  0  0  0  0  0  0  0
    8.3471   44.9462  129.8598 C   0  0  0  0  0  0  0  0  0  0  0  0
    9.0086   44.9666  131.0358 N   0  0  0  0  0  0  0  0  0  0  0  0
    8.9424   46.0153  131.8749 C   0  0  0  0  0  0  0  0  0  0  0  0
    8.2008   47.0760  131.5432 N   0  0  0  0  0  0  0  0  0  0  0  0
    9.6631   46.0473  133.0992 N   0  0  0  0  0  0  0  0  0  0  0  0
    9.9974   44.8577  133.8596 C   0  0  0  0  0  0  0  0  0  0  0  0
   10.4279   45.3479  135.2303 C   0  0  0  0  0  0  0  0  0  0  0  0
    9.4660   46.2206  135.7279 O   0  0  0  0  0  0  0  0  0  0  0  0
    9.4554   47.4279  135.0337 C   0  0  0  0  0  0  0  0  0  0  0  0
   10.0751   47.3181  133.6499 C   0  0  0  0  0  0  0  0  0  0  0  0
    8.4033   43.8354  128.9773 N   0  0  0  0  0  0  0  0  0  0  0  0
    7.6981   43.0937  129.0461 H   0  0  0  0  0  0  0  0  0  0  0  0
    9.4464   43.7616  127.9983 C   0  0  0  0  0  0  0  0  0  0  0  0
   10.6717   44.5636  128.3058 C   0  0  0  0  0  0  0  0  0  0  0  0
   11.2734   44.1478  129.6194 C   0  0  0  0  0  0  0  0  0  0  0  0
   12.1840   44.9419  130.2704 C   0  0  0  0  0  0  0  0  0  0  0  0
   12.7475   44.5670  131.4837 C   0  0  0  0  0  0  0  0  0  0  0  0
   12.3933   43.3707  132.0613 C   0  0  0  0  0  0  0  0  0  0  0  0
   12.9610   42.9880  133.2874 O   0  0  0  0  0  0  0  0  0  0  0  0
   11.4761   42.5548  131.4225 C   0  0  0  0  0  0  0  0  0  0  0  0
   10.9360   42.9556  130.2197 C   0  0  0  0  0  0  0  0  0  0  0  0
   12.5501   43.2230  134.1715 H   0  0  0  0  0  0  0  0  0  0  0  0
    6.7557   48.2707  130.0673 N   0  0  0  0  0  0  0  0  0  0  0  0
    5.5148   47.2104  128.2565 C   0  0  0  0  0  0  0  0  0  0  0  0
    5.6236   48.3224  129.2231 C   0  0  0  0  0  0  0  0  0  0  0  0
    7.2095   49.5245  130.6875 C   0  0  0  0  0  0  0  0  0  0  0  0
    7.2146   50.6479  129.7398 C   0  0  0  0  0  0  0  0  0  0  0  0
    7.4235   50.4655  128.3918 C   0  0  0  0  0  0  0  0  0  0  0  0
    7.4279   51.5076  127.4931 C   0  0  0  0  0  0  0  0  0  0  0  0
    7.2144   52.8342  127.9164 C   0  0  0  0  0  0  0  0  0  0  0  0
    7.0078   52.9946  129.2653 C   0  0  0  0  0  0  0  0  0  0  0  0
    7.0065   51.9210  130.1734 C   0  0  0  0  0  0  0  0  0  0  0  0
    7.2403   53.8507  126.9451 N   0  0  0  0  0  0  0  0  0  0  0  0
    6.1734   54.5630  126.3831 C   0  0  0  0  0  0  0  0  0  0  0  0
    4.9976   54.3503  126.7110 O   0  0  0  0  0  0  0  0  0  0  0  0
    8.2027   54.1184  126.5884 H   0  0  0  0  0  0  0  0  0  0  0  0
    6.4474   55.6110  125.3591 C   0  0  0  0  0  0  0  0  0  0  0  0
    6.2738   54.9905  124.0208 C   0  0  0  0  0  0  0  0  0  0  0  0
    4.9989   54.6387  123.5755 C   0  0  0  0  0  0  0  0  0  0  0  0
    4.8065   54.0659  122.3392 C   0  0  0  0  0  0  0  0  0  0  0  0
    5.8745   53.8371  121.5329 C   0  0  0  0  0  0  0  0  0  0  0  0
    7.1777   54.1649  121.9167 C   0  0  0  0  0  0  0  0  0  0  0  0
    7.3248   54.7356  123.1624 C   0  0  0  0  0  0  0  0  0  0  0  0
 26 27  1  0  0  0
 27 25  1  0  0  0
 25 28  1  0  0  0
 28 29  1  0  0  0
 29 30  2  0  0  0
 30 31  1  0  0  0
 31 32  2  0  0  0
 32 35  1  0  0  0
 35 36  1  0  0  0
 36 37  2  0  0  0
 36 39  1  0  0  0
 39 40  1  0  0  0
 40 41  2  0  0  0
 41 42  1  0  0  0
 42 43  2  0  0  0
 43 44  1  0  0  0
 44 45  2  0  0  0
 32 33  1  0  0  0
 33 34  2  0  0  0
 25  1  1  0  0  0
  1  2  2  0  0  0
  2  3  1  0  0  0
  3 13  1  0  0  0
 13 15  1  0  0  0
 15 16  1  0  0  0
 16 17  1  0  0  0
 17 18  2  0  0  0
 18 19  1  0  0  0
 19 20  2  0  0  0
 20 21  1  0  0  0
 20 22  1  0  0  0
 22 23  2  0  0  0
  3  4  2  0  0  0
  4  5  1  0  0  0
  5  6  2  0  0  0
  5  7  1  0  0  0
  7  8  1  0  0  0
  8  9  1  0  0  0
  9 10  1  0  0  0
 10 11  1  0  0  0
 11 12  1  0  0  0
 34 29  1  0  0  0
  6  1  1  0  0  0
 12  7  1  0  0  0
 45 40  1  0  0  0
 23 17  1  0  0  0
 35 38  1  0  0  0
 13 14  1  0  0  0
 21 24  1  0  0  0
M  END
> <minimizedAffinity>
0.42636

> <CNNscore>
0.1622607112

> <CNNaffinity>
7.4547247887

> <CNN_VS>
1.2096089125

> <CNNaffinity_variance>
0.0646521449

$$$$
[H]Oc1c([H])c([H])c(C([H])([H])C([H])([H])N([H])c2nc(N(C([H])([H])c3c([H])c([H])c(N([H])C(=O)C([H])([H])c4c([H])c([H])c([H])c([H])c4[H])c([H])c3[H])C([H])([H])C([H])([H])[H])nc(N3C([H])([H])C([H])([H])OC([H])([H])C3([H])[H])n2)c([H])c1[H]


 45 49  0  0  0  0  0  0  0  0999 V2000
    7.9602   48.0019  130.2823 C   0  0  0  0  0  0  0  0  0  0  0  0
    8.5971   48.4849  131.3557 N   0  0  0  0  0  0  0  0  0  0  0  0
    9.7656   48.0564  131.8493 C   0  0  0  0  0  0  0  0  0  0  0  0
   10.3386   47.0339  131.1805 N   0  0  0  0  0  0  0  0  0  0  0  0
    9.7717   46.4853  130.0916 C   0  0  0  0  0  0  0  0  0  0  0  0
    8.6038   46.9602  129.6493 N   0  0  0  0  0  0  0  0  0  0  0  0
   10.3619   45.3894  129.4060 N   0  0  0  0  0  0  0  0  0  0  0  0
   10.5330   45.3479  127.9658 C   0  0  0  0  0  0  0  0  0  0  0  0
   10.8516   43.9029  127.6266 C   0  0  0  0  0  0  0  0  0  0  0  0
    9.9055   43.0736  128.2195 O   0  0  0  0  0  0  0  0  0  0  0  0
   10.0500   43.0325  129.6041 C   0  0  0  0  0  0  0  0  0  0  0  0
   10.8009   44.2341  130.1547 C   0  0  0  0  0  0  0  0  0  0  0  0
   10.3675   48.6477  132.9913 N   0  0  0  0  0  0  0  0  0  0  0  0
   10.7310   49.6053  132.9375 H   0  0  0  0  0  0  0  0  0  0  0  0
   10.4614   47.8991  134.2090 C   0  0  0  0  0  0  0  0  0  0  0  0
    9.3102   46.9853  134.4898 C   0  0  0  0  0  0  0  0  0  0  0  0
    9.6201   45.5785  134.0592 C   0  0  0  0  0  0  0  0  0  0  0  0
    8.6696   44.7894  133.4614 C   0  0  0  0  0  0  0  0  0  0  0  0
    8.9445   43.4877  133.0610 C   0  0  0  0  0  0  0  0  0  0  0  0
   10.1985   42.9611  133.2618 C   0  0  0  0  0  0  0  0  0  0  0  0
   10.4801   41.6456  132.8589 O   0  0  0  0  0  0  0  0  0  0  0  0
   11.1724   43.7396  133.8621 C   0  0  0  0  0  0  0  0  0  0  0  0
   10.8674   45.0269  134.2481 C   0  0  0  0  0  0  0  0  0  0  0  0
   10.8313   41.4219  131.9467 H   0  0  0  0  0  0  0  0  0  0  0  0
    6.7353   48.4389  129.7758 N   0  0  0  0  0  0  0  0  0  0  0  0
    4.8586   46.9297  129.3973 C   0  0  0  0  0  0  0  0  0  0  0  0
    5.9466   47.7501  128.8268 C   0  0  0  0  0  0  0  0  0  0  0  0
    6.2435   49.7338  130.2695 C   0  0  0  0  0  0  0  0  0  0  0  0
    6.6308   50.8498  129.3951 C   0  0  0  0  0  0  0  0  0  0  0  0
    6.6243   52.1553  129.8305 C   0  0  0  0  0  0  0  0  0  0  0  0
    6.9872   53.2094  129.0237 C   0  0  0  0  0  0  0  0  0  0  0  0
    7.3907   52.9995  127.6902 C   0  0  0  0  0  0  0  0  0  0  0  0
    7.3904   51.6896  127.2754 C   0  0  0  0  0  0  0  0  0  0  0  0
    7.0164   50.6214  128.1101 C   0  0  0  0  0  0  0  0  0  0  0  0
    7.7402   54.1231  126.9204 N   0  0  0  0  0  0  0  0  0  0  0  0
    6.9086   55.0856  126.3341 C   0  0  0  0  0  0  0  0  0  0  0  0
    5.6751   55.0398  126.4414 O   0  0  0  0  0  0  0  0  0  0  0  0
    8.7795   54.2644  126.7625 H   0  0  0  0  0  0  0  0  0  0  0  0
    7.5135   56.2036  125.5555 C   0  0  0  0  0  0  0  0  0  0  0  0
    7.6360   55.7562  124.1444 C   0  0  0  0  0  0  0  0  0  0  0  0
    6.8332   54.7179  123.6701 C   0  0  0  0  0  0  0  0  0  0  0  0
    6.9215   54.2843  122.3670 C   0  0  0  0  0  0  0  0  0  0  0  0
    7.8048   54.8755  121.5223 C   0  0  0  0  0  0  0  0  0  0  0  0
    8.6382   55.9199  121.9320 C   0  0  0  0  0  0  0  0  0  0  0  0
    8.5174   56.3218  123.2447 C   0  0  0  0  0  0  0  0  0  0  0  0
 26 27  1  0  0  0
 27 25  1  0  0  0
 25 28  1  0  0  0
 28 29  1  0  0  0
 29 30  2  0  0  0
 30 31  1  0  0  0
 31 32  2  0  0  0
 32 35  1  0  0  0
 35 36  1  0  0  0
 36 37  2  0  0  0
 36 39  1  0  0  0
 39 40  1  0  0  0
 40 41  2  0  0  0
 41 42  1  0  0  0
 42 43  2  0  0  0
 43 44  1  0  0  0
 44 45  2  0  0  0
 32 33  1  0  0  0
 33 34  2  0  0  0
 25  1  1  0  0  0
  1  2  2  0  0  0
  2  3  1  0  0  0
  3 13  1  0  0  0
 13 15  1  0  0  0
 15 16  1  0  0  0
 16 17  1  0  0  0
 17 18  2  0  0  0
 18 19  1  0  0  0
 19 20  2  0  0  0
 20 21  1  0  0  0
 20 22  1  0  0  0
 22 23  2  0  0  0
  3  4  2  0  0  0
  4  5  1  0  0  0
  5  6  2  0  0  0
  5  7  1  0  0  0
  7  8  1  0  0  0
  8  9  1  0  0  0
  9 10  1  0  0  0
 10 11  1  0  0  0
 11 12  1  0  0  0
 34 29  1  0  0  0
  6  1  1  0  0  0
 12  7  1  0  0  0
 45 40  1  0  0  0
 23 17  1  0  0  0
 35 38  1  0  0  0
 13 14  1  0  0  0
 21 24  1  0  0  0
M  END
> <minimizedAffinity>
-1.09814

> <CNNscore>
0.1480541676

> <CNNaffinity>
7.5472326279

> <CNN_VS>
1.1173992157

> <CNNaffinity_variance>
0.1287070066

$$$$
[H]Oc1c([H])c([H])c(C([H])([H])C([H])([H])N([H])c2nc(N(C([H])([H])c3c([H])c([H])c(N([H])C(=O)C([H])([H])c4c([H])c([H])c([H])c([H])c4[H])c([H])c3[H])C([H])([H])C([H])([H])[H])nc(N3C([H])([H])C([H])([H])OC([H])([H])C3([H])[H])n2)c([H])c1[H]


 45 49  0  0  0  0  0  0  0  0999 V2000
    9.7550   47.5877  130.8335 C   0  0  0  0  0  0  0  0  0  0  0  0
    9.9243   47.0856  129.6046 N   0  0  0  0  0  0  0  0  0  0  0  0
   10.6423   46.0040  129.2771 C   0  0  0  0  0  0  0  0  0  0  0  0
   11.2465   45.3745  130.3064 N   0  0  0  0  0  0  0  0  0  0  0  0
   11.1324   45.8068  131.5746 C   0  0  0  0  0  0  0  0  0  0  0  0
   10.3998   46.8934  131.8347 N   0  0  0  0  0  0  0  0  0  0  0  0
   11.7934   45.1599  132.6535 N   0  0  0  0  0  0  0  0  0  0  0  0
   12.4895   43.8940  132.5189 C   0  0  0  0  0  0  0  0  0  0  0  0
   12.7260   43.3971  133.9337 C   0  0  0  0  0  0  0  0  0  0  0  0
   11.5287   43.4389  134.6402 O   0  0  0  0  0  0  0  0  0  0  0  0
   11.1324   44.7469  134.9083 C   0  0  0  0  0  0  0  0  0  0  0  0
   11.7657   45.7595  133.9678 C   0  0  0  0  0  0  0  0  0  0  0  0
   10.7488   45.5429  127.9384 N   0  0  0  0  0  0  0  0  0  0  0  0
   10.8378   46.2188  127.1721 H   0  0  0  0  0  0  0  0  0  0  0  0
   10.7304   44.1357  127.6713 C   0  0  0  0  0  0  0  0  0  0  0  0
    9.4323   43.4468  127.9530 C   0  0  0  0  0  0  0  0  0  0  0  0
    9.2237   43.2720  129.4317 C   0  0  0  0  0  0  0  0  0  0  0  0
   10.0010   42.4110  130.1652 C   0  0  0  0  0  0  0  0  0  0  0  0
    9.8161   42.2404  131.5316 C   0  0  0  0  0  0  0  0  0  0  0  0
    8.8317   42.9465  132.1816 C   0  0  0  0  0  0  0  0  0  0  0  0
    8.6413   42.7765  133.5625 O   0  0  0  0  0  0  0  0  0  0  0  0
    8.0367   43.8208  131.4614 C   0  0  0  0  0  0  0  0  0  0  0  0
    8.2455   43.9668  130.1072 C   0  0  0  0  0  0  0  0  0  0  0  0
    9.1139   43.3361  134.2474 H   0  0  0  0  0  0  0  0  0  0  0  0
    9.0183   48.7232  131.1736 N   0  0  0  0  0  0  0  0  0  0  0  0
   10.0417   49.4132  133.2759 C   0  0  0  0  0  0  0  0  0  0  0  0
    9.4850   49.7986  131.9629 C   0  0  0  0  0  0  0  0  0  0  0  0
    7.6369   48.7854  130.6734 C   0  0  0  0  0  0  0  0  0  0  0  0
    7.3947   49.9748  129.8447 C   0  0  0  0  0  0  0  0  0  0  0  0
    6.9629   51.1652  130.3839 C   0  0  0  0  0  0  0  0  0  0  0  0
    6.7351   52.2872  129.6204 C   0  0  0  0  0  0  0  0  0  0  0  0
    6.9370   52.2717  128.2262 C   0  0  0  0  0  0  0  0  0  0  0  0
    7.3680   51.0744  127.7080 C   0  0  0  0  0  0  0  0  0  0  0  0
    7.5964   49.9347  128.4995 C   0  0  0  0  0  0  0  0  0  0  0  0
    6.6768   53.4518  127.5071 N   0  0  0  0  0  0  0  0  0  0  0  0
    7.5049   54.1425  126.6133 C   0  0  0  0  0  0  0  0  0  0  0  0
    8.6495   53.7518  126.3439 O   0  0  0  0  0  0  0  0  0  0  0  0
    5.7181   53.8791  127.6603 H   0  0  0  0  0  0  0  0  0  0  0  0
    7.0059   55.3858  125.9598 C   0  0  0  0  0  0  0  0  0  0  0  0
    7.4400   55.3545  124.5397 C   0  0  0  0  0  0  0  0  0  0  0  0
    6.8244   54.4817  123.6415 C   0  0  0  0  0  0  0  0  0  0  0  0
    7.2025   54.4330  122.3192 C   0  0  0  0  0  0  0  0  0  0  0  0
    8.1928   55.2485  121.8748 C   0  0  0  0  0  0  0  0  0  0  0  0
    8.8509   56.1456  122.7204 C   0  0  0  0  0  0  0  0  0  0  0  0
    8.4413   56.1609  124.0362 C   0  0  0  0  0  0  0  0  0  0  0  0
 26 27  1  0  0  0
 27 25  1  0  0  0
 25 28  1  0  0  0
 28 29  1  0  0  0
 29 30  2  0  0  0
 30 31  1  0  0  0
 31 32  2  0  0  0
 32 35  1  0  0  0
 35 36  1  0  0  0
 36 37  2  0  0  0
 36 39  1  0  0  0
 39 40  1  0  0  0
 40 41  2  0  0  0
 41 42  1  0  0  0
 42 43  2  0  0  0
 43 44  1  0  0  0
 44 45  2  0  0  0
 32 33  1  0  0  0
 33 34  2  0  0  0
 25  1  1  0  0  0
  1  2  2  0  0  0
  2  3  1  0  0  0
  3 13  1  0  0  0
 13 15  1  0  0  0
 15 16  1  0  0  0
 16 17  1  0  0  0
 17 18  2  0  0  0
 18 19  1  0  0  0
 19 20  2  0  0  0
 20 21  1  0  0  0
 20 22  1  0  0  0
 22 23  2  0  0  0
  3  4  2  0  0  0
  4  5  1  0  0  0
  5  6  2  0  0  0
  5  7  1  0  0  0
  7  8  1  0  0  0
  8  9  1  0  0  0
  9 10  1  0  0  0
 10 11  1  0  0  0
 11 12  1  0  0  0
 34 29  1  0  0  0
  6  1  1  0  0  0
 12  7  1  0  0  0
 45 40  1  0  0  0
 23 17  1  0  0  0
 35 38  1  0  0  0
 13 14  1  0  0  0
 21 24  1  0  0  0
M  END
> <minimizedAffinity>
-2.99035

> <CNNscore>
0.1398281902

> <CNNaffinity>
7.2531442642

> <CNN_VS>
1.0141940117

> <CNNaffinity_variance>
0.0859014243

$$$$
[H]Oc1c([H])c([H])c(C([H])([H])C([H])([H])N([H])c2nc(N(C([H])([H])c3c([H])c([H])c(N([H])C(=O)C([H])([H])c4c([H])c([H])c([H])c([H])c4[H])c([H])c3[H])C([H])([H])C([H])([H])[H])nc(N3C([H])([H])C([H])([H])OC([H])([H])C3([H])[H])n2)c([H])c1[H]


 45 49  0  0  0  0  0  0  0  0999 V2000
    8.5018   47.3997  131.7958 C   0  0  0  0  0  0  0  0  0  0  0  0
    8.7359   47.1207  133.0836 N   0  0  0  0  0  0  0  0  0  0  0  0
    8.9484   45.9086  133.6111 C   0  0  0  0  0  0  0  0  0  0  0  0
    8.9182   44.8813  132.7366 N   0  0  0  0  0  0  0  0  0  0  0  0
    8.6905   45.0663  131.4243 C   0  0  0  0  0  0  0  0  0  0  0  0
    8.4863   46.3028  130.9611 N   0  0  0  0  0  0  0  0  0  0  0  0
    8.6298   43.9805  130.5096 N   0  0  0  0  0  0  0  0  0  0  0  0
    8.6490   42.5891  130.9206 C   0  0  0  0  0  0  0  0  0  0  0  0
    8.9295   41.7878  129.6621 C   0  0  0  0  0  0  0  0  0  0  0  0
   10.0428   42.3187  129.0193 O   0  0  0  0  0  0  0  0  0  0  0  0
    9.7696   43.5627  128.4559 C   0  0  0  0  0  0  0  0  0  0  0  0
    8.5699   44.2471  129.0907 C   0  0  0  0  0  0  0  0  0  0  0  0
    9.2022   45.7191  134.9951 N   0  0  0  0  0  0  0  0  0  0  0  0
    8.4201   45.6960  135.6582 H   0  0  0  0  0  0  0  0  0  0  0  0
   10.5508   45.5622  135.4520 C   0  0  0  0  0  0  0  0  0  0  0  0
   11.2044   44.2665  135.0869 C   0  0  0  0  0  0  0  0  0  0  0  0
   11.7076   44.2961  133.6705 C   0  0  0  0  0  0  0  0  0  0  0  0
   12.1867   45.4524  133.1074 C   0  0  0  0  0  0  0  0  0  0  0  0
   12.6526   45.4916  131.7990 C   0  0  0  0  0  0  0  0  0  0  0  0
   12.6404   44.3491  131.0345 C   0  0  0  0  0  0  0  0  0  0  0  0
   13.1100   44.3848  129.7115 O   0  0  0  0  0  0  0  0  0  0  0  0
   12.1623   43.1718  131.5826 C   0  0  0  0  0  0  0  0  0  0  0  0
   11.7068   43.1666  132.8832 C   0  0  0  0  0  0  0  0  0  0  0  0
   14.0673   44.2069  129.4716 H   0  0  0  0  0  0  0  0  0  0  0  0
    8.2663   48.6614  131.2479 N   0  0  0  0  0  0  0  0  0  0  0  0
   10.0054   49.7439  132.5696 C   0  0  0  0  0  0  0  0  0  0  0  0
    9.0985   49.7928  131.4044 C   0  0  0  0  0  0  0  0  0  0  0  0
    7.0372   48.8155  130.4553 C   0  0  0  0  0  0  0  0  0  0  0  0
    7.0212   50.0672  129.6851 C   0  0  0  0  0  0  0  0  0  0  0  0
    6.6587   51.2683  130.2505 C   0  0  0  0  0  0  0  0  0  0  0  0
    6.6422   52.4480  129.5421 C   0  0  0  0  0  0  0  0  0  0  0  0
    7.0023   52.4839  128.1805 C   0  0  0  0  0  0  0  0  0  0  0  0
    7.3609   51.2748  127.6353 C   0  0  0  0  0  0  0  0  0  0  0  0
    7.3729   50.0760  128.3704 C   0  0  0  0  0  0  0  0  0  0  0  0
    6.9548   53.7225  127.5164 N   0  0  0  0  0  0  0  0  0  0  0  0
    7.7835   54.2116  126.4987 C   0  0  0  0  0  0  0  0  0  0  0  0
    8.7245   53.5469  126.0427 O   0  0  0  0  0  0  0  0  0  0  0  0
    6.1817   54.3790  127.8270 H   0  0  0  0  0  0  0  0  0  0  0  0
    7.5362   55.5708  125.9389 C   0  0  0  0  0  0  0  0  0  0  0  0
    7.7695   55.5045  124.4735 C   0  0  0  0  0  0  0  0  0  0  0  0
    8.7439   56.3122  123.8854 C   0  0  0  0  0  0  0  0  0  0  0  0
    8.9852   56.2700  122.5312 C   0  0  0  0  0  0  0  0  0  0  0  0
    8.2644   55.4273  121.7479 C   0  0  0  0  0  0  0  0  0  0  0  0
    7.2742   54.5918  122.2718 C   0  0  0  0  0  0  0  0  0  0  0  0
    7.0650   54.6668  123.6319 C   0  0  0  0  0  0  0  0  0  0  0  0
 26 27  1  0  0  0
 27 25  1  0  0  0
 25 28  1  0  0  0
 28 29  1  0  0  0
 29 30  2  0  0  0
 30 31  1  0  0  0
 31 32  2  0  0  0
 32 35  1  0  0  0
 35 36  1  0  0  0
 36 37  2  0  0  0
 36 39  1  0  0  0
 39 40  1  0  0  0
 40 41  2  0  0  0
 41 42  1  0  0  0
 42 43  2  0  0  0
 43 44  1  0  0  0
 44 45  2  0  0  0
 32 33  1  0  0  0
 33 34  2  0  0  0
 25  1  1  0  0  0
  1  2  2  0  0  0
  2  3  1  0  0  0
  3 13  1  0  0  0
 13 15  1  0  0  0
 15 16  1  0  0  0
 16 17  1  0  0  0
 17 18  2  0  0  0
 18 19  1  0  0  0
 19 20  2  0  0  0
 20 21  1  0  0  0
 20 22  1  0  0  0
 22 23  2  0  0  0
  3  4  2  0  0  0
  4  5  1  0  0  0
  5  6  2  0  0  0
  5  7  1  0  0  0
  7  8  1  0  0  0
  8  9  1  0  0  0
  9 10  1  0  0  0
 10 11  1  0  0  0
 11 12  1  0  0  0
 34 29  1  0  0  0
  6  1  1  0  0  0
 12  7  1  0  0  0
 45 40  1  0  0  0
 23 17  1  0  0  0
 35 38  1  0  0  0
 13 14  1  0  0  0
 21 24  1  0  0  0
M  END
> <minimizedAffinity>
-2.09576

> <CNNscore>
0.1388205588

> <CNNaffinity>
7.2377533913

> <CNN_VS>
1.0047489405

> <CNNaffinity_variance>
0.0751201957

$$$$
[H]C1=C2C([H])([H])C([H])([H])[C@@]3([H])[C@]4([H])C([H])([H])[C@@]([H])(OC([H])([H])C([H])([H])[H])[C@@]4(C([H])([H])[H])C([H])([H])C([H])([H])[C@]3([H])[C@@]2(C([H])([H])[H])C([H])([H])C([H])([H])C1=O


 22 25  0  0  0  0  0  0  0  0999 V2000
   11.0297   43.3481  131.7141 C   0  0  0  0  0  0  0  0  0  0  0  0
   11.8497   44.6609  131.6219 C   0  0  0  0  0  0  0  0  0  0  0  0
   10.5418   45.3026  131.5445 C   0  0  0  0  0  0  0  0  0  0  0  0
   10.1977   46.4736  130.7403 C   0  0  0  0  0  0  0  0  0  0  0  0
   10.6322   47.7235  131.4460 C   0  0  0  0  0  0  0  0  0  0  0  0
   10.0062   48.9855  130.9905 C   0  0  0  0  0  0  0  0  0  0  0  0
    8.6275   48.8676  130.4727 C   0  0  0  0  0  0  0  0  0  0  0  0
    7.8139   49.8953  130.6550 C   0  0  0  0  0  0  0  0  0  0  0  0
    6.4212   49.8554  130.1670 C   0  0  0  0  0  0  0  0  0  0  0  0
    5.5108   50.5936  130.5845 O   0  0  0  0  0  0  0  0  0  0  0  0
    6.1712   48.8273  129.0953 C   0  0  0  0  0  0  0  0  0  0  0  0
    6.7277   47.5322  129.6046 C   0  0  0  0  0  0  0  0  0  0  0  0
    8.2351   47.6120  129.7830 C   0  0  0  0  0  0  0  0  0  0  0  0
    8.8556   47.5207  128.4056 C   0  0  0  0  0  0  0  0  0  0  0  0
    8.6775   46.4928  130.6569 C   0  0  0  0  0  0  0  0  0  0  0  0
    8.0684   45.2106  130.2332 C   0  0  0  0  0  0  0  0  0  0  0  0
    8.6361   43.9927  130.9735 C   0  0  0  0  0  0  0  0  0  0  0  0
   10.0885   44.0494  130.7824 C   0  0  0  0  0  0  0  0  0  0  0  0
   10.5519   43.9346  129.3762 C   0  0  0  0  0  0  0  0  0  0  0  0
   10.6021   43.1946  133.0194 O   0  0  0  0  0  0  0  0  0  0  0  0
   11.1015   44.4274  135.0315 C   0  0  0  0  0  0  0  0  0  0  0  0
   11.6168   43.5431  133.9093 C   0  0  0  0  0  0  0  0  0  0  0  0
 21 22  1  0  0  0
 22 20  1  0  0  0
 20  1  1  0  0  0
  1  2  1  0  0  0
  2  3  1  0  0  0
  3  4  1  0  0  0
  4  5  1  0  0  0
  5  6  1  0  0  0
  6  7  1  0  0  0
  7  8  2  0  0  0
  8  9  1  0  0  0
  9 10  2  0  0  0
  9 11  1  0  0  0
 11 12  1  0  0  0
 12 13  1  0  0  0
 13 14  1  0  0  0
 13 15  1  0  0  0
 15 16  1  0  0  0
 16 17  1  0  0  0
 17 18  1  0  0  0
 18 19  1  0  0  0
 18  1  1  0  0  0
 18  3  1  0  0  0
 15  4  1  0  0  0
 13  7  1  0  0  0
M  END
> <minimizedAffinity>
-7.98029

> <CNNscore>
0.6240330935

> <CNNaffinity>
7.4636001587

> <CNN_VS>
4.6575336456

> <CNNaffinity_variance>
0.3040883243

$$$$
[H]C1=C2C([H])([H])C([H])([H])[C@@]3([H])[C@]4([H])C([H])([H])[C@@]([H])(OC([H])([H])C([H])([H])[H])[C@@]4(C([H])([H])[H])C([H])([H])C([H])([H])[C@]3([H])[C@@]2(C([H])([H])[H])C([H])([H])C([H])([H])C1=O


 22 25  0  0  0  0  0  0  0  0999 V2000
   11.3496   43.1354  132.8201 C   0  0  0  0  0  0  0  0  0  0  0  0
    9.8008   43.0620  132.8349 C   0  0  0  0  0  0  0  0  0  0  0  0
    9.8787   44.2991  132.0657 C   0  0  0  0  0  0  0  0  0  0  0  0
    8.9674   45.4379  132.1619 C   0  0  0  0  0  0  0  0  0  0  0  0
    7.7251   45.1665  131.3667 C   0  0  0  0  0  0  0  0  0  0  0  0
    6.9005   46.3448  131.0155 C   0  0  0  0  0  0  0  0  0  0  0  0
    7.6376   47.6117  130.8296 C   0  0  0  0  0  0  0  0  0  0  0  0
    7.1587   48.4766  129.9500 C   0  0  0  0  0  0  0  0  0  0  0  0
    7.8373   49.7649  129.7069 C   0  0  0  0  0  0  0  0  0  0  0  0
    7.6758   50.4610  128.6883 O   0  0  0  0  0  0  0  0  0  0  0  0
    8.7677   50.1913  130.8117 C   0  0  0  0  0  0  0  0  0  0  0  0
    9.6595   49.0211  131.0977 C   0  0  0  0  0  0  0  0  0  0  0  0
    8.8654   47.8409  131.6335 C   0  0  0  0  0  0  0  0  0  0  0  0
    8.5318   48.1432  133.0784 C   0  0  0  0  0  0  0  0  0  0  0  0
    9.6892   46.6088  131.5090 C   0  0  0  0  0  0  0  0  0  0  0  0
   11.0673   46.8347  132.0034 C   0  0  0  0  0  0  0  0  0  0  0  0
   11.9047   45.5517  132.0802 C   0  0  0  0  0  0  0  0  0  0  0  0
   11.1286   44.6156  132.8991 C   0  0  0  0  0  0  0  0  0  0  0  0
   10.8901   45.0412  134.3017 C   0  0  0  0  0  0  0  0  0  0  0  0
   11.7956   42.6443  131.6076 O   0  0  0  0  0  0  0  0  0  0  0  0
   10.8835   43.3205  129.4796 C   0  0  0  0  0  0  0  0  0  0  0  0
   10.7274   42.4710  130.7289 C   0  0  0  0  0  0  0  0  0  0  0  0
 21 22  1  0  0  0
 22 20  1  0  0  0
 20  1  1  0  0  0
  1  2  1  0  0  0
  2  3  1  0  0  0
  3  4  1  0  0  0
  4  5  1  0  0  0
  5  6  1  0  0  0
  6  7  1  0  0  0
  7  8  2  0  0  0
  8  9  1  0  0  0
  9 10  2  0  0  0
  9 11  1  0  0  0
 11 12  1  0  0  0
 12 13  1  0  0  0
 13 14  1  0  0  0
 13 15  1  0  0  0
 15 16  1  0  0  0
 16 17  1  0  0  0
 17 18  1  0  0  0
 18 19  1  0  0  0
 18  1  1  0  0  0
 18  3  1  0  0  0
 15  4  1  0  0  0
 13  7  1  0  0  0
M  END
> <minimizedAffinity>
-7.80386

> <CNNscore>
0.5198519230

> <CNNaffinity>
7.4001150131

> <CNN_VS>
3.8469641209

> <CNNaffinity_variance>
0.3675697446

$$$$
[H]C1=C2C([H])([H])C([H])([H])[C@@]3([H])[C@]4([H])C([H])([H])[C@@]([H])(OC([H])([H])C([H])([H])[H])[C@@]4(C([H])([H])[H])C([H])([H])C([H])([H])[C@]3([H])[C@@]2(C([H])([H])[H])C([H])([H])C([H])([H])C1=O


 22 25  0  0  0  0  0  0  0  0999 V2000
    9.4029   42.9317  132.5158 C   0  0  0  0  0  0  0  0  0  0  0  0
   10.6896   43.7965  132.4890 C   0  0  0  0  0  0  0  0  0  0  0  0
    9.7685   44.9018  132.2478 C   0  0  0  0  0  0  0  0  0  0  0  0
   10.0077   46.0561  131.3836 C   0  0  0  0  0  0  0  0  0  0  0  0
   10.8421   47.0712  132.1065 C   0  0  0  0  0  0  0  0  0  0  0  0
   10.8287   48.4447  131.5542 C   0  0  0  0  0  0  0  0  0  0  0  0
    9.5772   48.8550  130.8846 C   0  0  0  0  0  0  0  0  0  0  0  0
    9.2371   50.1323  130.9495 C   0  0  0  0  0  0  0  0  0  0  0  0
    8.0017   50.6214  130.3060 C   0  0  0  0  0  0  0  0  0  0  0  0
    7.4335   51.6886  130.5999 O   0  0  0  0  0  0  0  0  0  0  0  0
    7.4601   49.7106  129.2359 C   0  0  0  0  0  0  0  0  0  0  0  0
    7.3918   48.3381  129.8344 C   0  0  0  0  0  0  0  0  0  0  0  0
    8.7773   47.8189  130.1825 C   0  0  0  0  0  0  0  0  0  0  0  0
    9.4362   47.3949  128.8878 C   0  0  0  0  0  0  0  0  0  0  0  0
    8.6416   46.6772  131.1261 C   0  0  0  0  0  0  0  0  0  0  0  0
    7.6085   45.7214  130.6640 C   0  0  0  0  0  0  0  0  0  0  0  0
    7.5595   44.4305  131.4914 C   0  0  0  0  0  0  0  0  0  0  0  0
    8.9211   43.8875  131.4669 C   0  0  0  0  0  0  0  0  0  0  0  0
    9.4305   43.5030  130.1260 C   0  0  0  0  0  0  0  0  0  0  0  0
    8.8268   43.0498  133.7665 O   0  0  0  0  0  0  0  0  0  0  0  0
    7.5400   41.3544  132.6318 C   0  0  0  0  0  0  0  0  0  0  0  0
    7.7767   42.1441  133.9075 C   0  0  0  0  0  0  0  0  0  0  0  0
 21 22  1  0  0  0
 22 20  1  0  0  0
 20  1  1  0  0  0
  1  2  1  0  0  0
  2  3  1  0  0  0
  3  4  1  0  0  0
  4  5  1  0  0  0
  5  6  1  0  0  0
  6  7  1  0  0  0
  7  8  2  0  0  0
  8  9  1  0  0  0
  9 10  2  0  0  0
  9 11  1  0  0  0
 11 12  1  0  0  0
 12 13  1  0  0  0
 13 14  1  0  0  0
 13 15  1  0  0  0
 15 16  1  0  0  0
 16 17  1  0  0  0
 17 18  1  0  0  0
 18 19  1  0  0  0
 18  1  1  0  0  0
 18  3  1  0  0  0
 15  4  1  0  0  0
 13  7  1  0  0  0
M  END
> <minimizedAffinity>
-0.22543

> <CNNscore>
0.4847309887

> <CNNaffinity>
7.3173742294

> <CNN_VS>
3.5469579697

> <CNNaffinity_variance>
1.3199675083

$$$$
[H]C1=C2C([H])([H])C([H])([H])[C@@]3([H])[C@]4([H])C([H])([H])[C@@]([H])(OC([H])([H])C([H])([H])[H])[C@@]4(C([H])([H])[H])C([H])([H])C([H])([H])[C@]3([H])[C@@]2(C([H])([H])[H])C([H])([H])C([H])([H])C1=O


 22 25  0  0  0  0  0  0  0  0999 V2000
    7.8539   49.7362  130.6446 C   0  0  0  0  0  0  0  0  0  0  0  0
    8.7531   49.2782  129.4672 C   0  0  0  0  0  0  0  0  0  0  0  0
    8.8146   48.0152  130.1949 C   0  0  0  0  0  0  0  0  0  0  0  0
    9.9724   47.1286  130.2949 C   0  0  0  0  0  0  0  0  0  0  0  0
   10.0749   46.2813  129.0617 C   0  0  0  0  0  0  0  0  0  0  0  0
   10.9142   45.0663  129.1684 C   0  0  0  0  0  0  0  0  0  0  0  0
   10.9690   44.4395  130.5052 C   0  0  0  0  0  0  0  0  0  0  0  0
   11.1123   43.1251  130.5609 C   0  0  0  0  0  0  0  0  0  0  0  0
   11.1759   42.4239  131.8585 C   0  0  0  0  0  0  0  0  0  0  0  0
   10.9589   41.2081  132.0095 O   0  0  0  0  0  0  0  0  0  0  0  0
   11.5326   43.3099  133.0228 C   0  0  0  0  0  0  0  0  0  0  0  0
   10.6155   44.4936  132.9584 C   0  0  0  0  0  0  0  0  0  0  0  0
   10.8603   45.3129  131.7017 C   0  0  0  0  0  0  0  0  0  0  0  0
   12.1292   46.1071  131.9237 C   0  0  0  0  0  0  0  0  0  0  0  0
    9.6915   46.2034  131.4711 C   0  0  0  0  0  0  0  0  0  0  0  0
    9.2936   46.8972  132.7181 C   0  0  0  0  0  0  0  0  0  0  0  0
    8.2206   47.9719  132.5012 C   0  0  0  0  0  0  0  0  0  0  0  0
    8.7538   48.8675  131.4703 C   0  0  0  0  0  0  0  0  0  0  0  0
    9.9988   49.5904  131.8349 C   0  0  0  0  0  0  0  0  0  0  0  0
    6.5749   49.2617  130.4236 O   0  0  0  0  0  0  0  0  0  0  0  0
    5.5338   47.6690  128.9412 C   0  0  0  0  0  0  0  0  0  0  0  0
    6.4133   48.8986  129.0875 C   0  0  0  0  0  0  0  0  0  0  0  0
 21 22  1  0  0  0
 22 20  1  0  0  0
 20  1  1  0  0  0
  1  2  1  0  0  0
  2  3  1  0  0  0
  3  4  1  0  0  0
  4  5  1  0  0  0
  5  6  1  0  0  0
  6  7  1  0  0  0
  7  8  2  0  0  0
  8  9  1  0  0  0
  9 10  2  0  0  0
  9 11  1  0  0  0
 11 12  1  0  0  0
 12 13  1  0  0  0
 13 14  1  0  0  0
 13 15  1  0  0  0
 15 16  1  0  0  0
 16 17  1  0  0  0
 17 18  1  0  0  0
 18 19  1  0  0  0
 18  1  1  0  0  0
 18  3  1  0  0  0
 15  4  1  0  0  0
 13  7  1  0  0  0
M  END
> <minimizedAffinity>
-7.43570

> <CNNscore>
0.4779447615

> <CNNaffinity>
7.2317748070

> <CNN_VS>
3.4563889503

> <CNNaffinity_variance>
0.1904320270

$$$$
[H]C1=C2C([H])([H])C([H])([H])[C@@]3([H])[C@]4([H])C([H])([H])[C@@]([H])(OC([H])([H])C([H])([H])[H])[C@@]4(C([H])([H])[H])C([H])([H])C([H])([H])[C@]3([H])[C@@]2(C([H])([H])[H])C([H])([H])C([H])([H])C1=O


 22 25  0  0  0  0  0  0  0  0999 V2000
    9.8898   42.1117  130.3819 C   0  0  0  0  0  0  0  0  0  0  0  0
    8.4293   42.6265  130.3014 C   0  0  0  0  0  0  0  0  0  0  0  0
    9.0366   43.9424  130.4686 C   0  0  0  0  0  0  0  0  0  0  0  0
    8.4801   45.0638  131.2230 C   0  0  0  0  0  0  0  0  0  0  0  0
    7.4547   45.7784  130.3941 C   0  0  0  0  0  0  0  0  0  0  0  0
    7.1028   47.1503  130.8252 C   0  0  0  0  0  0  0  0  0  0  0  0
    8.1820   47.9115  131.4877 C   0  0  0  0  0  0  0  0  0  0  0  0
    8.1984   49.2242  131.3207 C   0  0  0  0  0  0  0  0  0  0  0  0
    9.2437   50.0553  131.9499 C   0  0  0  0  0  0  0  0  0  0  0  0
    9.5433   51.2045  131.5787 O   0  0  0  0  0  0  0  0  0  0  0  0
    9.9440   49.3952  133.1082 C   0  0  0  0  0  0  0  0  0  0  0  0
   10.3768   48.0412  132.6331 C   0  0  0  0  0  0  0  0  0  0  0  0
    9.1801   47.1664  132.2969 C   0  0  0  0  0  0  0  0  0  0  0  0
    8.5878   46.6932  133.6067 C   0  0  0  0  0  0  0  0  0  0  0  0
    9.6369   46.0251  131.4597 C   0  0  0  0  0  0  0  0  0  0  0  0
   10.8520   45.3971  132.0287 C   0  0  0  0  0  0  0  0  0  0  0  0
   11.2564   44.0991  131.3180 C   0  0  0  0  0  0  0  0  0  0  0  0
   10.0717   43.2363  131.3556 C   0  0  0  0  0  0  0  0  0  0  0  0
    9.6123   42.8423  132.7117 C   0  0  0  0  0  0  0  0  0  0  0  0
   10.4754   42.2724  129.1405 O   0  0  0  0  0  0  0  0  0  0  0  0
   10.6174   44.2461  127.7611 C   0  0  0  0  0  0  0  0  0  0  0  0
    9.7375   43.1652  128.3649 C   0  0  0  0  0  0  0  0  0  0  0  0
 21 22  1  0  0  0
 22 20  1  0  0  0
 20  1  1  0  0  0
  1  2  1  0  0  0
  2  3  1  0  0  0
  3  4  1  0  0  0
  4  5  1  0  0  0
  5  6  1  0  0  0
  6  7  1  0  0  0
  7  8  2  0  0  0
  8  9  1  0  0  0
  9 10  2  0  0  0
  9 11  1  0  0  0
 11 12  1  0  0  0
 12 13  1  0  0  0
 13 14  1  0  0  0
 13 15  1  0  0  0
 15 16  1  0  0  0
 16 17  1  0  0  0
 17 18  1  0  0  0
 18 19  1  0  0  0
 18  1  1  0  0  0
 18  3  1  0  0  0
 15  4  1  0  0  0
 13  7  1  0  0  0
M  END
> <minimizedAffinity>
-5.67542

> <CNNscore>
0.4192903638

> <CNNaffinity>
7.1762261391

> <CNN_VS>
3.0089225769

> <CNNaffinity_variance>
0.3095997274

$$$$
[H]C1=C2C([H])([H])C([H])([H])[C@@]3([H])[C@]4([H])C([H])([H])[C@@]([H])(OC([H])([H])C([H])([H])[H])[C@@]4(C([H])([H])[H])C([H])([H])C([H])([H])[C@]3([H])[C@@]2(C([H])([H])[H])C([H])([H])C([H])([H])C1=O


 22 25  0  0  0  0  0  0  0  0999 V2000
    8.9721   44.3862  128.5119 C   0  0  0  0  0  0  0  0  0  0  0  0
    8.1572   45.6747  128.7949 C   0  0  0  0  0  0  0  0  0  0  0  0
    9.1570   45.9063  129.8317 C   0  0  0  0  0  0  0  0  0  0  0  0
    8.9202   46.4994  131.1465 C   0  0  0  0  0  0  0  0  0  0  0  0
    8.8724   47.9939  131.0316 C   0  0  0  0  0  0  0  0  0  0  0  0
    9.0572   48.7548  132.2880 C   0  0  0  0  0  0  0  0  0  0  0  0
    9.9196   48.1166  133.3039 C   0  0  0  0  0  0  0  0  0  0  0  0
   10.6294   48.9089  134.0911 C   0  0  0  0  0  0  0  0  0  0  0  0
   11.5149   48.3485  135.1309 C   0  0  0  0  0  0  0  0  0  0  0  0
   12.4543   48.9691  135.6605 O   0  0  0  0  0  0  0  0  0  0  0  0
   11.1922   46.9295  135.5182 C   0  0  0  0  0  0  0  0  0  0  0  0
   11.0970   46.1474  134.2431 C   0  0  0  0  0  0  0  0  0  0  0  0
    9.9417   46.6336  133.3832 C   0  0  0  0  0  0  0  0  0  0  0  0
    8.6677   46.0936  133.9960 C   0  0  0  0  0  0  0  0  0  0  0  0
   10.1326   46.1381  131.9939 C   0  0  0  0  0  0  0  0  0  0  0  0
   10.4839   44.6990  131.9829 C   0  0  0  0  0  0  0  0  0  0  0  0
   10.5029   44.0874  130.5761 C   0  0  0  0  0  0  0  0  0  0  0  0
    9.1893   44.3801  129.9947 C   0  0  0  0  0  0  0  0  0  0  0  0
    8.0309   43.7718  130.6970 C   0  0  0  0  0  0  0  0  0  0  0  0
   10.0619   44.7247  127.7322 O   0  0  0  0  0  0  0  0  0  0  0  0
    9.9880   42.3144  127.6800 C   0  0  0  0  0  0  0  0  0  0  0  0
   10.7536   43.5807  127.3377 C   0  0  0  0  0  0  0  0  0  0  0  0
 21 22  1  0  0  0
 22 20  1  0  0  0
 20  1  1  0  0  0
  1  2  1  0  0  0
  2  3  1  0  0  0
  3  4  1  0  0  0
  4  5  1  0  0  0
  5  6  1  0  0  0
  6  7  1  0  0  0
  7  8  2  0  0  0
  8  9  1  0  0  0
  9 10  2  0  0  0
  9 11  1  0  0  0
 11 12  1  0  0  0
 12 13  1  0  0  0
 13 14  1  0  0  0
 13 15  1  0  0  0
 15 16  1  0  0  0
 16 17  1  0  0  0
 17 18  1  0  0  0
 18 19  1  0  0  0
 18  1  1  0  0  0
 18  3  1  0  0  0
 15  4  1  0  0  0
 13  7  1  0  0  0
M  END
> <minimizedAffinity>
4.22187

> <CNNscore>
0.4084149897

> <CNNaffinity>
7.0349044800

> <CNN_VS>
2.8731603622

> <CNNaffinity_variance>
1.3734182119

$$$$
[H]C1=C2C([H])([H])C([H])([H])[C@@]3([H])[C@]4([H])C([H])([H])[C@@]([H])(OC([H])([H])C([H])([H])[H])[C@@]4(C([H])([H])[H])C([H])([H])C([H])([H])[C@]3([H])[C@@]2(C([H])([H])[H])C([H])([H])C([H])([H])C1=O


 22 25  0  0  0  0  0  0  0  0999 V2000
   10.4793   42.9706  133.6070 C   0  0  0  0  0  0  0  0  0  0  0  0
   11.1119   43.0144  132.1920 C   0  0  0  0  0  0  0  0  0  0  0  0
   10.3979   44.2808  132.0695 C   0  0  0  0  0  0  0  0  0  0  0  0
    9.7616   44.8032  130.8618 C   0  0  0  0  0  0  0  0  0  0  0  0
   10.7912   45.4396  129.9763 C   0  0  0  0  0  0  0  0  0  0  0  0
   10.2827   46.3665  128.9400 C   0  0  0  0  0  0  0  0  0  0  0  0
    9.0466   47.0988  129.2846 C   0  0  0  0  0  0  0  0  0  0  0  0
    8.8940   48.3143  128.7839 C   0  0  0  0  0  0  0  0  0  0  0  0
    7.6869   49.1105  129.0811 C   0  0  0  0  0  0  0  0  0  0  0  0
    7.6143   50.3464  128.9569 O   0  0  0  0  0  0  0  0  0  0  0  0
    6.5131   48.2977  129.5601 C   0  0  0  0  0  0  0  0  0  0  0  0
    7.0180   47.4276  130.6712 C   0  0  0  0  0  0  0  0  0  0  0  0
    8.0533   46.4353  130.1673 C   0  0  0  0  0  0  0  0  0  0  0  0
    7.3071   45.3409  129.4352 C   0  0  0  0  0  0  0  0  0  0  0  0
    8.8112   45.8975  131.3285 C   0  0  0  0  0  0  0  0  0  0  0  0
    7.8978   45.4935  132.4226 C   0  0  0  0  0  0  0  0  0  0  0  0
    8.6058   44.7545  133.5654 C   0  0  0  0  0  0  0  0  0  0  0  0
    9.3119   43.6324  132.9396 C   0  0  0  0  0  0  0  0  0  0  0  0
    8.4471   42.6291  132.2683 C   0  0  0  0  0  0  0  0  0  0  0  0
   11.2385   43.7639  134.4463 O   0  0  0  0  0  0  0  0  0  0  0  0
   12.7571   45.5396  133.8475 C   0  0  0  0  0  0  0  0  0  0  0  0
   12.4731   44.0477  133.8645 C   0  0  0  0  0  0  0  0  0  0  0  0
 21 22  1  0  0  0
 22 20  1  0  0  0
 20  1  1  0  0  0
  1  2  1  0  0  0
  2  3  1  0  0  0
  3  4  1  0  0  0
  4  5  1  0  0  0
  5  6  1  0  0  0
  6  7  1  0  0  0
  7  8  2  0  0  0
  8  9  1  0  0  0
  9 10  2  0  0  0
  9 11  1  0  0  0
 11 12  1  0  0  0
 12 13  1  0  0  0
 13 14  1  0  0  0
 13 15  1  0  0  0
 15 16  1  0  0  0
 16 17  1  0  0  0
 17 18  1  0  0  0
 18 19  1  0  0  0
 18  1  1  0  0  0
 18  3  1  0  0  0
 15  4  1  0  0  0
 13  7  1  0  0  0
M  END
> <minimizedAffinity>
-5.95115

> <CNNscore>
0.4049988687

> <CNNaffinity>
7.1424050331

> <CNN_VS>
2.8926658630

> <CNNaffinity_variance>
0.3573692441

$$$$
[H]C1=C2C([H])([H])C([H])([H])[C@@]3([H])[C@]4([H])C([H])([H])[C@@]([H])(OC([H])([H])C([H])([H])[H])[C@@]4(C([H])([H])[H])C([H])([H])C([H])([H])[C@]3([H])[C@@]2(C([H])([H])[H])C([H])([H])C([H])([H])C1=O


 22 25  0  0  0  0  0  0  0  0999 V2000
   12.5806   43.4546  132.0942 C   0  0  0  0  0  0  0  0  0  0  0  0
   11.4639   43.7198  133.1369 C   0  0  0  0  0  0  0  0  0  0  0  0
   10.7070   44.2066  131.9886 C   0  0  0  0  0  0  0  0  0  0  0  0
    9.7755   45.3330  131.9796 C   0  0  0  0  0  0  0  0  0  0  0  0
    8.4444   44.8994  132.5173 C   0  0  0  0  0  0  0  0  0  0  0  0
    7.2920   45.7723  132.1981 C   0  0  0  0  0  0  0  0  0  0  0  0
    7.3721   46.4966  130.9128 C   0  0  0  0  0  0  0  0  0  0  0  0
    6.2387   46.7410  130.2748 C   0  0  0  0  0  0  0  0  0  0  0  0
    6.2345   47.4596  128.9853 C   0  0  0  0  0  0  0  0  0  0  0  0
    5.2977   47.4258  128.1671 O   0  0  0  0  0  0  0  0  0  0  0  0
    7.4815   48.2613  128.7206 C   0  0  0  0  0  0  0  0  0  0  0  0
    8.6414   47.3423  128.9583 C   0  0  0  0  0  0  0  0  0  0  0  0
    8.7096   46.9055  130.4127 C   0  0  0  0  0  0  0  0  0  0  0  0
    9.2641   48.0693  131.2054 C   0  0  0  0  0  0  0  0  0  0  0  0
    9.5848   45.7074  130.5160 C   0  0  0  0  0  0  0  0  0  0  0  0
   10.8448   45.8988  129.7608 C   0  0  0  0  0  0  0  0  0  0  0  0
   11.8676   44.7784  129.9887 C   0  0  0  0  0  0  0  0  0  0  0  0
   12.0547   44.6964  131.4404 C   0  0  0  0  0  0  0  0  0  0  0  0
   12.6195   45.9116  132.0804 C   0  0  0  0  0  0  0  0  0  0  0  0
   12.3040   42.2599  131.4568 O   0  0  0  0  0  0  0  0  0  0  0  0
   10.0603   41.5972  130.8697 C   0  0  0  0  0  0  0  0  0  0  0  0
   11.1233   41.7063  131.9491 C   0  0  0  0  0  0  0  0  0  0  0  0
 21 22  1  0  0  0
 22 20  1  0  0  0
 20  1  1  0  0  0
  1  2  1  0  0  0
  2  3  1  0  0  0
  3  4  1  0  0  0
  4  5  1  0  0  0
  5  6  1  0  0  0
  6  7  1  0  0  0
  7  8  2  0  0  0
  8  9  1  0  0  0
  9 10  2  0  0  0
  9 11  1  0  0  0
 11 12  1  0  0  0
 12 13  1  0  0  0
 13 14  1  0  0  0
 13 15  1  0  0  0
 15 16  1  0  0  0
 16 17  1  0  0  0
 17 18  1  0  0  0
 18 19  1  0  0  0
 18  1  1  0  0  0
 18  3  1  0  0  0
 15  4  1  0  0  0
 13  7  1  0  0  0
M  END
> <minimizedAffinity>
-5.11762

> <CNNscore>
0.2702513337

> <CNNaffinity>
6.9086713791

> <CNN_VS>
1.8670777082

> <CNNaffinity_variance>
0.1829892695

$$$$
[H]C1=C2C([H])([H])C([H])([H])[C@@]3([H])[C@]4([H])C([H])([H])[C@@]([H])(OC([H])([H])C([H])([H])[H])[C@@]4(C([H])([H])[H])C([H])([H])C([H])([H])[C@]3([H])[C@@]2(C([H])([H])[H])C([H])([H])C([H])([H])C1=O


 22 25  0  0  0  0  0  0  0  0999 V2000
    7.5621   47.9009  128.8522 C   0  0  0  0  0  0  0  0  0  0  0  0
    6.8083   47.4316  130.1235 C   0  0  0  0  0  0  0  0  0  0  0  0
    8.1330   47.0322  130.5861 C   0  0  0  0  0  0  0  0  0  0  0  0
    8.4518   45.8500  131.3844 C   0  0  0  0  0  0  0  0  0  0  0  0
    8.1624   46.1175  132.8314 C   0  0  0  0  0  0  0  0  0  0  0  0
    8.8029   45.2074  133.8078 C   0  0  0  0  0  0  0  0  0  0  0  0
   10.1104   44.6504  133.4039 C   0  0  0  0  0  0  0  0  0  0  0  0
   10.9926   44.4022  134.3586 C   0  0  0  0  0  0  0  0  0  0  0  0
   12.3213   43.8451  134.0367 C   0  0  0  0  0  0  0  0  0  0  0  0
   13.3092   43.9084  134.7905 O   0  0  0  0  0  0  0  0  0  0  0  0
   12.4004   43.1742  132.6908 C   0  0  0  0  0  0  0  0  0  0  0  0
   11.8328   44.1403  131.6953 C   0  0  0  0  0  0  0  0  0  0  0  0
   10.3594   44.4032  131.9606 C   0  0  0  0  0  0  0  0  0  0  0  0
    9.5919   43.1964  131.4660 C   0  0  0  0  0  0  0  0  0  0  0  0
    9.9533   45.6410  131.2428 C   0  0  0  0  0  0  0  0  0  0  0  0
   10.4443   45.6341  129.8452 C   0  0  0  0  0  0  0  0  0  0  0  0
    9.8943   46.7908  129.0008 C   0  0  0  0  0  0  0  0  0  0  0  0
    8.4349   46.7114  129.1155 C   0  0  0  0  0  0  0  0  0  0  0  0
    7.8190   45.4727  128.5755 C   0  0  0  0  0  0  0  0  0  0  0  0
    8.1173   49.1400  129.1097 O   0  0  0  0  0  0  0  0  0  0  0  0
    6.7503   50.6626  130.3867 C   0  0  0  0  0  0  0  0  0  0  0  0
    7.1480   50.1375  129.0181 C   0  0  0  0  0  0  0  0  0  0  0  0
 21 22  1  0  0  0
 22 20  1  0  0  0
 20  1  1  0  0  0
  1  2  1  0  0  0
  2  3  1  0  0  0
  3  4  1  0  0  0
  4  5  1  0  0  0
  5  6  1  0  0  0
  6  7  1  0  0  0
  7  8  2  0  0  0
  8  9  1  0  0  0
  9 10  2  0  0  0
  9 11  1  0  0  0
 11 12  1  0  0  0
 12 13  1  0  0  0
 13 14  1  0  0  0
 13 15  1  0  0  0
 15 16  1  0  0  0
 16 17  1  0  0  0
 17 18  1  0  0  0
 18 19  1  0  0  0
 18  1  1  0  0  0
 18  3  1  0  0  0
 15  4  1  0  0  0
 13  7  1  0  0  0
M  END
> <minimizedAffinity>
-5.95169

> <CNNscore>
0.2386425138

> <CNNaffinity>
6.9566030502

> <CNN_VS>
1.6601412296

> <CNNaffinity_variance>
0.1835331023

$$$$
[H]Oc1c([H])c([H])c(C(=O)c2c(C([H])([H])C([H])([H])[H])n(-c3c([H])c([H])c([H])c([H])c3[H])c(=O)c3c([H])c([H])c([H])c([H])c23)c([H])c1[H]


 29 32  0  0  0  0  0  0  0  0999 V2000
    9.0375   44.9996  131.7619 C   0  0  0  0  0  0  0  0  0  0  0  0
    9.5110   45.8794  130.8178 C   0  0  0  0  0  0  0  0  0  0  0  0
    9.9839   45.3627  129.6100 C   0  0  0  0  0  0  0  0  0  0  0  0
   10.4527   46.2536  128.6680 C   0  0  0  0  0  0  0  0  0  0  0  0
   10.9243   45.7375  127.4648 C   0  0  0  0  0  0  0  0  0  0  0  0
   10.9222   44.3858  127.2273 C   0  0  0  0  0  0  0  0  0  0  0  0
   10.4482   43.5169  128.1803 C   0  0  0  0  0  0  0  0  0  0  0  0
    9.9619   43.9818  129.4082 C   0  0  0  0  0  0  0  0  0  0  0  0
    9.4902   43.1276  130.3614 C   0  0  0  0  0  0  0  0  0  0  0  0
    9.4634   41.8966  130.2073 O   0  0  0  0  0  0  0  0  0  0  0  0
    9.0360   43.6508  131.5222 N   0  0  0  0  0  0  0  0  0  0  0  0
    8.5593   42.7785  132.5550 C   0  0  0  0  0  0  0  0  0  0  0  0
    9.5459   42.4125  133.4772 C   0  0  0  0  0  0  0  0  0  0  0  0
    9.2005   41.5534  134.5040 C   0  0  0  0  0  0  0  0  0  0  0  0
    7.9112   41.0802  134.5975 C   0  0  0  0  0  0  0  0  0  0  0  0
    6.9473   41.4596  133.6652 C   0  0  0  0  0  0  0  0  0  0  0  0
    7.2731   42.3174  132.6337 C   0  0  0  0  0  0  0  0  0  0  0  0
    9.2999   45.7688  134.1659 C   0  0  0  0  0  0  0  0  0  0  0  0
    8.4433   45.4615  133.0014 C   0  0  0  0  0  0  0  0  0  0  0  0
    9.6292   47.2893  131.0789 C   0  0  0  0  0  0  0  0  0  0  0  0
   10.6093   47.5374  131.9125 O   0  0  0  0  0  0  0  0  0  0  0  0
    8.8835   48.4109  130.5931 C   0  0  0  0  0  0  0  0  0  0  0  0
    8.8213   49.6597  131.1402 C   0  0  0  0  0  0  0  0  0  0  0  0
    8.0716   50.7159  130.5951 C   0  0  0  0  0  0  0  0  0  0  0  0
    7.3438   50.4867  129.4232 C   0  0  0  0  0  0  0  0  0  0  0  0
    6.5926   51.5471  128.8741 O   0  0  0  0  0  0  0  0  0  0  0  0
    7.3822   49.2595  128.8563 C   0  0  0  0  0  0  0  0  0  0  0  0
    8.1282   48.2414  129.4157 C   0  0  0  0  0  0  0  0  0  0  0  0
    7.0642   52.1420  128.2024 H   0  0  0  0  0  0  0  0  0  0  0  0
 18 19  1  0  0  0
 19  1  1  0  0  0
  1  2  2  0  0  0
  2 20  1  0  0  0
 20 21  2  0  0  0
 20 22  1  0  0  0
 22 23  2  0  0  0
 23 24  1  0  0  0
 24 25  2  0  0  0
 25 26  1  0  0  0
 25 27  1  0  0  0
 27 28  2  0  0  0
  2  3  1  0  0  0
  3  4  2  0  0  0
  4  5  1  0  0  0
  5  6  2  0  0  0
  6  7  1  0  0  0
  7  8  2  0  0  0
  8  9  1  0  0  0
  9 10  2  0  0  0
  9 11  1  0  0  0
 11 12  1  0  0  0
 12 13  2  0  0  0
 13 14  1  0  0  0
 14 15  2  0  0  0
 15 16  1  0  0  0
 16 17  2  0  0  0
 11  1  1  0  0  0
 17 12  1  0  0  0
 28 22  1  0  0  0
  8  3  1  0  0  0
 26 29  1  0  0  0
M  END
> <minimizedAffinity>
1.32960

> <CNNscore>
0.5406161547

> <CNNaffinity>
7.6967682838

> <CNN_VS>
4.1609973907

> <CNNaffinity_variance>
1.1412923336

$$$$
[H]Oc1c([H])c([H])c(C(=O)c2c(C([H])([H])C([H])([H])[H])n(-c3c([H])c([H])c([H])c([H])c3[H])c(=O)c3c([H])c([H])c([H])c([H])c23)c([H])c1[H]


 29 32  0  0  0  0  0  0  0  0999 V2000
    9.2542   45.2147  131.8425 C   0  0  0  0  0  0  0  0  0  0  0  0
    8.5509   45.3701  130.6718 C   0  0  0  0  0  0  0  0  0  0  0  0
    8.9780   44.6652  129.5447 C   0  0  0  0  0  0  0  0  0  0  0  0
    8.2634   44.8244  128.3765 C   0  0  0  0  0  0  0  0  0  0  0  0
    8.6902   44.1218  127.2537 C   0  0  0  0  0  0  0  0  0  0  0  0
    9.7872   43.2990  127.3108 C   0  0  0  0  0  0  0  0  0  0  0  0
   10.4828   43.1542  128.4868 C   0  0  0  0  0  0  0  0  0  0  0  0
   10.0971   43.8372  129.6465 C   0  0  0  0  0  0  0  0  0  0  0  0
   10.7814   43.7014  130.8187 C   0  0  0  0  0  0  0  0  0  0  0  0
   11.7807   42.9747  130.9337 O   0  0  0  0  0  0  0  0  0  0  0  0
   10.3485   44.3925  131.8969 N   0  0  0  0  0  0  0  0  0  0  0  0
   11.0618   44.2930  133.1364 C   0  0  0  0  0  0  0  0  0  0  0  0
   12.2494   45.0324  133.1588 C   0  0  0  0  0  0  0  0  0  0  0  0
   13.0296   44.9896  134.2995 C   0  0  0  0  0  0  0  0  0  0  0  0
   12.6296   44.2301  135.3757 C   0  0  0  0  0  0  0  0  0  0  0  0
   11.4422   43.5019  135.3273 C   0  0  0  0  0  0  0  0  0  0  0  0
   10.6495   43.5332  134.1975 C   0  0  0  0  0  0  0  0  0  0  0  0
    9.2838   47.1964  133.4275 C   0  0  0  0  0  0  0  0  0  0  0  0
    8.8204   45.8372  133.0784 C   0  0  0  0  0  0  0  0  0  0  0  0
    7.4664   46.3077  130.5509 C   0  0  0  0  0  0  0  0  0  0  0  0
    6.3268   45.7635  130.9007 O   0  0  0  0  0  0  0  0  0  0  0  0
    7.4365   47.6766  130.1321 C   0  0  0  0  0  0  0  0  0  0  0  0
    8.4081   48.6171  130.3166 C   0  0  0  0  0  0  0  0  0  0  0  0
    8.3082   49.9438  129.8640 C   0  0  0  0  0  0  0  0  0  0  0  0
    7.1514   50.3346  129.1825 C   0  0  0  0  0  0  0  0  0  0  0  0
    7.0513   51.6656  128.7259 O   0  0  0  0  0  0  0  0  0  0  0  0
    6.1683   49.4272  128.9844 C   0  0  0  0  0  0  0  0  0  0  0  0
    6.2955   48.1306  129.4412 C   0  0  0  0  0  0  0  0  0  0  0  0
    7.3995   51.8569  127.7934 H   0  0  0  0  0  0  0  0  0  0  0  0
 18 19  1  0  0  0
 19  1  1  0  0  0
  1  2  2  0  0  0
  2 20  1  0  0  0
 20 21  2  0  0  0
 20 22  1  0  0  0
 22 23  2  0  0  0
 23 24  1  0  0  0
 24 25  2  0  0  0
 25 26  1  0  0  0
 25 27  1  0  0  0
 27 28  2  0  0  0
  2  3  1  0  0  0
  3  4  2  0  0  0
  4  5  1  0  0  0
  5  6  2  0  0  0
  6  7  1  0  0  0
  7  8  2  0  0  0
  8  9  1  0  0  0
  9 10  2  0  0  0
  9 11  1  0  0  0
 11 12  1  0  0  0
 12 13  2  0  0  0
 13 14  1  0  0  0
 14 15  2  0  0  0
 15 16  1  0  0  0
 16 17  2  0  0  0
 11  1  1  0  0  0
 17 12  1  0  0  0
 28 22  1  0  0  0
  8  3  1  0  0  0
 26 29  1  0  0  0
M  END
> <minimizedAffinity>
-2.42213

> <CNNscore>
0.5054227114

> <CNNaffinity>
7.5922150612

> <CNN_VS>
3.8372778893

> <CNNaffinity_variance>
0.7442722321

$$$$
[H]Oc1c([H])c([H])c(C(=O)c2c(C([H])([H])C([H])([H])[H])n(-c3c([H])c([H])c([H])c([H])c3[H])c(=O)c3c([H])c([H])c([H])c([H])c23)c([H])c1[H]


 29 32  0  0  0  0  0  0  0  0999 V2000
    8.7605   47.3884  130.9769 C   0  0  0  0  0  0  0  0  0  0  0  0
    9.5543   46.5124  131.6781 C   0  0  0  0  0  0  0  0  0  0  0  0
   10.3344   47.0158  132.7210 C   0  0  0  0  0  0  0  0  0  0  0  0
   11.1240   46.1284  133.4210 C   0  0  0  0  0  0  0  0  0  0  0  0
   11.9014   46.6313  134.4598 C   0  0  0  0  0  0  0  0  0  0  0  0
   11.8810   47.9671  134.7740 C   0  0  0  0  0  0  0  0  0  0  0  0
   11.0846   48.8327  134.0637 C   0  0  0  0  0  0  0  0  0  0  0  0
   10.2824   48.3805  133.0090 C   0  0  0  0  0  0  0  0  0  0  0  0
    9.4892   49.2316  132.2968 C   0  0  0  0  0  0  0  0  0  0  0  0
    9.4283   50.4487  132.5311 O   0  0  0  0  0  0  0  0  0  0  0  0
    8.7416   48.7212  131.2927 N   0  0  0  0  0  0  0  0  0  0  0  0
    7.9183   49.5933  130.5074 C   0  0  0  0  0  0  0  0  0  0  0  0
    8.3471   49.7233  129.1819 C   0  0  0  0  0  0  0  0  0  0  0  0
    7.6379   50.5601  128.3401 C   0  0  0  0  0  0  0  0  0  0  0  0
    6.5399   51.2408  128.8157 C   0  0  0  0  0  0  0  0  0  0  0  0
    6.1342   51.0943  130.1409 C   0  0  0  0  0  0  0  0  0  0  0  0
    6.8290   50.2624  130.9960 C   0  0  0  0  0  0  0  0  0  0  0  0
    6.4987   46.4566  130.3014 C   0  0  0  0  0  0  0  0  0  0  0  0
    7.8519   46.9308  129.9434 C   0  0  0  0  0  0  0  0  0  0  0  0
    9.6818   45.1292  131.3032 C   0  0  0  0  0  0  0  0  0  0  0  0
   10.7204   44.9414  130.5265 O   0  0  0  0  0  0  0  0  0  0  0  0
    8.8935   43.9798  131.6310 C   0  0  0  0  0  0  0  0  0  0  0  0
    8.5586   43.5373  132.8778 C   0  0  0  0  0  0  0  0  0  0  0  0
    7.7678   42.4007  133.1181 C   0  0  0  0  0  0  0  0  0  0  0  0
    7.2893   41.6732  132.0239 C   0  0  0  0  0  0  0  0  0  0  0  0
    6.4935   40.5334  132.2642 O   0  0  0  0  0  0  0  0  0  0  0  0
    7.6044   42.0837  130.7744 C   0  0  0  0  0  0  0  0  0  0  0  0
    8.3838   43.2048  130.5702 C   0  0  0  0  0  0  0  0  0  0  0  0
    5.4922   40.6788  132.3244 H   0  0  0  0  0  0  0  0  0  0  0  0
 18 19  1  0  0  0
 19  1  1  0  0  0
  1  2  2  0  0  0
  2 20  1  0  0  0
 20 21  2  0  0  0
 20 22  1  0  0  0
 22 23  2  0  0  0
 23 24  1  0  0  0
 24 25  2  0  0  0
 25 26  1  0  0  0
 25 27  1  0  0  0
 27 28  2  0  0  0
  2  3  1  0  0  0
  3  4  2  0  0  0
  4  5  1  0  0  0
  5  6  2  0  0  0
  6  7  1  0  0  0
  7  8  2  0  0  0
  8  9  1  0  0  0
  9 10  2  0  0  0
  9 11  1  0  0  0
 11 12  1  0  0  0
 12 13  2  0  0  0
 13 14  1  0  0  0
 14 15  2  0  0  0
 15 16  1  0  0  0
 16 17  2  0  0  0
 11  1  1  0  0  0
 17 12  1  0  0  0
 28 22  1  0  0  0
  8  3  1  0  0  0
 26 29  1  0  0  0
M  END
> <minimizedAffinity>
6.05544

> <CNNscore>
0.4887177050

> <CNNaffinity>
7.3211922646

> <CNN_VS>
3.5779962540

> <CNNaffinity_variance>
1.9511816502

$$$$
[H]Oc1c([H])c([H])c(C(=O)c2c(C([H])([H])C([H])([H])[H])n(-c3c([H])c([H])c([H])c([H])c3[H])c(=O)c3c([H])c([H])c([H])c([H])c23)c([H])c1[H]


 29 32  0  0  0  0  0  0  0  0999 V2000
    9.8568   46.4416  131.9736 C   0  0  0  0  0  0  0  0  0  0  0  0
    9.7518   46.7507  130.6384 C   0  0  0  0  0  0  0  0  0  0  0  0
   10.1513   45.7931  129.7041 C   0  0  0  0  0  0  0  0  0  0  0  0
   10.0381   46.1110  128.3674 C   0  0  0  0  0  0  0  0  0  0  0  0
   10.4370   45.1561  127.4371 C   0  0  0  0  0  0  0  0  0  0  0  0
   10.9273   43.9393  127.8404 C   0  0  0  0  0  0  0  0  0  0  0  0
   11.0292   43.6437  129.1784 C   0  0  0  0  0  0  0  0  0  0  0  0
   10.6422   44.5674  130.1568 C   0  0  0  0  0  0  0  0  0  0  0  0
   10.7404   44.2844  131.4877 C   0  0  0  0  0  0  0  0  0  0  0  0
   11.1765   43.2041  131.9150 O   0  0  0  0  0  0  0  0  0  0  0  0
   10.3461   45.2263  132.3736 N   0  0  0  0  0  0  0  0  0  0  0  0
   10.4622   44.9706  133.7794 C   0  0  0  0  0  0  0  0  0  0  0  0
   11.4735   44.0584  134.1000 C   0  0  0  0  0  0  0  0  0  0  0  0
   11.6582   43.7209  135.4281 C   0  0  0  0  0  0  0  0  0  0  0  0
   10.8543   44.2798  136.3957 C   0  0  0  0  0  0  0  0  0  0  0  0
    9.8533   45.1855  136.0495 C   0  0  0  0  0  0  0  0  0  0  0  0
    9.6545   45.5355  134.7289 C   0  0  0  0  0  0  0  0  0  0  0  0
   10.0908   48.6081  133.2742 C   0  0  0  0  0  0  0  0  0  0  0  0
    9.3763   47.3432  133.0028 C   0  0  0  0  0  0  0  0  0  0  0  0
    9.3470   48.0550  130.1857 C   0  0  0  0  0  0  0  0  0  0  0  0
   10.3852   48.8169  129.9433 O   0  0  0  0  0  0  0  0  0  0  0  0
    8.0519   48.6243  129.9656 C   0  0  0  0  0  0  0  0  0  0  0  0
    7.6517   49.8981  130.2484 C   0  0  0  0  0  0  0  0  0  0  0  0
    6.3596   50.3872  129.9913 C   0  0  0  0  0  0  0  0  0  0  0  0
    5.4208   49.5285  129.4109 C   0  0  0  0  0  0  0  0  0  0  0  0
    4.1241   50.0194  129.1504 O   0  0  0  0  0  0  0  0  0  0  0  0
    5.7844   48.2589  129.1197 C   0  0  0  0  0  0  0  0  0  0  0  0
    7.0619   47.8073  129.3844 C   0  0  0  0  0  0  0  0  0  0  0  0
    3.9692   50.4439  128.2430 H   0  0  0  0  0  0  0  0  0  0  0  0
 18 19  1  0  0  0
 19  1  1  0  0  0
  1  2  2  0  0  0
  2 20  1  0  0  0
 20 21  2  0  0  0
 20 22  1  0  0  0
 22 23  2  0  0  0
 23 24  1  0  0  0
 24 25  2  0  0  0
 25 26  1  0  0  0
 25 27  1  0  0  0
 27 28  2  0  0  0
  2  3  1  0  0  0
  3  4  2  0  0  0
  4  5  1  0  0  0
  5  6  2  0  0  0
  6  7  1  0  0  0
  7  8  2  0  0  0
  8  9  1  0  0  0
  9 10  2  0  0  0
  9 11  1  0  0  0
 11 12  1  0  0  0
 12 13  2  0  0  0
 13 14  1  0  0  0
 14 15  2  0  0  0
 15 16  1  0  0  0
 16 17  2  0  0  0
 11  1  1  0  0  0
 17 12  1  0  0  0
 28 22  1  0  0  0
  8  3  1  0  0  0
 26 29  1  0  0  0
M  END
> <minimizedAffinity>
-5.21343

> <CNNscore>
0.4856274128

> <CNNaffinity>
7.5221939087

> <CNN_VS>
3.6529836655

> <CNNaffinity_variance>
0.5438355207

$$$$
[H]Oc1c([H])c([H])c(C(=O)c2c(C([H])([H])C([H])([H])[H])n(-c3c([H])c([H])c([H])c([H])c3[H])c(=O)c3c([H])c([H])c([H])c([H])c23)c([H])c1[H]


 29 32  0  0  0  0  0  0  0  0999 V2000
   10.0259   45.7586  130.5627 C   0  0  0  0  0  0  0  0  0  0  0  0
    9.0788   46.2013  131.4551 C   0  0  0  0  0  0  0  0  0  0  0  0
    9.3111   46.0057  132.8179 C   0  0  0  0  0  0  0  0  0  0  0  0
    8.3572   46.4571  133.7052 C   0  0  0  0  0  0  0  0  0  0  0  0
    8.5896   46.2612  135.0631 C   0  0  0  0  0  0  0  0  0  0  0  0
    9.7313   45.6382  135.5013 C   0  0  0  0  0  0  0  0  0  0  0  0
   10.6692   45.1984  134.5985 C   0  0  0  0  0  0  0  0  0  0  0  0
   10.4863   45.3697  133.2210 C   0  0  0  0  0  0  0  0  0  0  0  0
   11.4106   44.9357  132.3165 C   0  0  0  0  0  0  0  0  0  0  0  0
   12.4608   44.3648  132.6495 O   0  0  0  0  0  0  0  0  0  0  0  0
   11.1648   45.1374  131.0025 N   0  0  0  0  0  0  0  0  0  0  0  0
   12.1030   44.6688  130.0253 C   0  0  0  0  0  0  0  0  0  0  0  0
   13.4366   44.7735  130.4355 C   0  0  0  0  0  0  0  0  0  0  0  0
   14.4279   44.3708  129.5597 C   0  0  0  0  0  0  0  0  0  0  0  0
   14.0889   43.8828  128.3180 C   0  0  0  0  0  0  0  0  0  0  0  0
   12.7525   43.7897  127.9334 C   0  0  0  0  0  0  0  0  0  0  0  0
   11.7489   44.1858  128.7947 C   0  0  0  0  0  0  0  0  0  0  0  0
   10.3318   47.3031  128.5725 C   0  0  0  0  0  0  0  0  0  0  0  0
    9.9040   46.0070  129.1391 C   0  0  0  0  0  0  0  0  0  0  0  0
    7.8237   46.7572  131.0240 C   0  0  0  0  0  0  0  0  0  0  0  0
    6.8305   45.9411  131.2783 O   0  0  0  0  0  0  0  0  0  0  0  0
    7.5028   48.0024  130.3943 C   0  0  0  0  0  0  0  0  0  0  0  0
    6.5996   48.2117  129.3927 C   0  0  0  0  0  0  0  0  0  0  0  0
    6.3318   49.4722  128.8320 C   0  0  0  0  0  0  0  0  0  0  0  0
    7.0237   50.5845  129.3214 C   0  0  0  0  0  0  0  0  0  0  0  0
    6.7538   51.8505  128.7606 O   0  0  0  0  0  0  0  0  0  0  0  0
    7.9272   50.4115  130.3127 C   0  0  0  0  0  0  0  0  0  0  0  0
    8.1688   49.1600  130.8434 C   0  0  0  0  0  0  0  0  0  0  0  0
    6.0165   52.3951  129.1936 H   0  0  0  0  0  0  0  0  0  0  0  0
 18 19  1  0  0  0
 19  1  1  0  0  0
  1  2  2  0  0  0
  2 20  1  0  0  0
 20 21  2  0  0  0
 20 22  1  0  0  0
 22 23  2  0  0  0
 23 24  1  0  0  0
 24 25  2  0  0  0
 25 26  1  0  0  0
 25 27  1  0  0  0
 27 28  2  0  0  0
  2  3  1  0  0  0
  3  4  2  0  0  0
  4  5  1  0  0  0
  5  6  2  0  0  0
  6  7  1  0  0  0
  7  8  2  0  0  0
  8  9  1  0  0  0
  9 10  2  0  0  0
  9 11  1  0  0  0
 11 12  1  0  0  0
 12 13  2  0  0  0
 13 14  1  0  0  0
 14 15  2  0  0  0
 15 16  1  0  0  0
 16 17  2  0  0  0
 11  1  1  0  0  0
 17 12  1  0  0  0
 28 22  1  0  0  0
  8  3  1  0  0  0
 26 29  1  0  0  0
M  END
> <minimizedAffinity>
-2.03685

> <CNNscore>
0.4709838331

> <CNNaffinity>
7.4504308701

> <CNN_VS>
3.5090324879

> <CNNaffinity_variance>
0.7604188919

$$$$
[H]Oc1c([H])c([H])c(C(=O)c2c(C([H])([H])C([H])([H])[H])n(-c3c([H])c([H])c([H])c([H])c3[H])c(=O)c3c([H])c([H])c([H])c([H])c23)c([H])c1[H]


 29 32  0  0  0  0  0  0  0  0999 V2000
    9.8230   45.9129  130.8560 C   0  0  0  0  0  0  0  0  0  0  0  0
    9.5453   47.2528  130.7249 C   0  0  0  0  0  0  0  0  0  0  0  0
    9.8320   48.0963  131.7999 C   0  0  0  0  0  0  0  0  0  0  0  0
    9.5538   49.4390  131.6570 C   0  0  0  0  0  0  0  0  0  0  0  0
    9.8395   50.2787  132.7293 C   0  0  0  0  0  0  0  0  0  0  0  0
   10.3795   49.7831  133.8896 C   0  0  0  0  0  0  0  0  0  0  0  0
   10.6503   48.4413  134.0086 C   0  0  0  0  0  0  0  0  0  0  0  0
   10.3829   47.5517  132.9610 C   0  0  0  0  0  0  0  0  0  0  0  0
   10.6469   46.2177  133.0693 C   0  0  0  0  0  0  0  0  0  0  0  0
   11.1330   45.7093  134.0916 O   0  0  0  0  0  0  0  0  0  0  0  0
   10.3625   45.4208  132.0150 N   0  0  0  0  0  0  0  0  0  0  0  0
   10.6024   44.0105  132.1068 C   0  0  0  0  0  0  0  0  0  0  0  0
   11.9462   43.6598  131.9366 C   0  0  0  0  0  0  0  0  0  0  0  0
   12.2876   42.3208  131.9830 C   0  0  0  0  0  0  0  0  0  0  0  0
   11.3128   41.3715  132.1915 C   0  0  0  0  0  0  0  0  0  0  0  0
    9.9811   41.7474  132.3573 C   0  0  0  0  0  0  0  0  0  0  0  0
    9.6211   43.0795  132.3152 C   0  0  0  0  0  0  0  0  0  0  0  0
   10.7475   44.7396  128.8045 C   0  0  0  0  0  0  0  0  0  0  0  0
    9.6426   44.9877  129.7540 C   0  0  0  0  0  0  0  0  0  0  0  0
    8.8785   47.7848  129.5664 C   0  0  0  0  0  0  0  0  0  0  0  0
    9.5952   47.6093  128.4834 O   0  0  0  0  0  0  0  0  0  0  0  0
    7.6151   48.4414  129.4156 C   0  0  0  0  0  0  0  0  0  0  0  0
    7.3783   49.7855  129.4177 C   0  0  0  0  0  0  0  0  0  0  0  0
    6.1046   50.3555  129.2521 C   0  0  0  0  0  0  0  0  0  0  0  0
    5.0081   49.5064  129.0726 C   0  0  0  0  0  0  0  0  0  0  0  0
    3.7294   50.0778  128.9040 O   0  0  0  0  0  0  0  0  0  0  0  0
    5.2078   48.1688  129.0672 C   0  0  0  0  0  0  0  0  0  0  0  0
    6.4717   47.6385  129.2327 C   0  0  0  0  0  0  0  0  0  0  0  0
    3.4429   50.2864  127.9543 H   0  0  0  0  0  0  0  0  0  0  0  0
 18 19  1  0  0  0
 19  1  1  0  0  0
  1  2  2  0  0  0
  2 20  1  0  0  0
 20 21  2  0  0  0
 20 22  1  0  0  0
 22 23  2  0  0  0
 23 24  1  0  0  0
 24 25  2  0  0  0
 25 26  1  0  0  0
 25 27  1  0  0  0
 27 28  2  0  0  0
  2  3  1  0  0  0
  3  4  2  0  0  0
  4  5  1  0  0  0
  5  6  2  0  0  0
  6  7  1  0  0  0
  7  8  2  0  0  0
  8  9  1  0  0  0
  9 10  2  0  0  0
  9 11  1  0  0  0
 11 12  1  0  0  0
 12 13  2  0  0  0
 13 14  1  0  0  0
 14 15  2  0  0  0
 15 16  1  0  0  0
 16 17  2  0  0  0
 11  1  1  0  0  0
 17 12  1  0  0  0
 28 22  1  0  0  0
  8  3  1  0  0  0
 26 29  1  0  0  0
M  END
> <minimizedAffinity>
-2.44867

> <CNNscore>
0.4631882906

> <CNNaffinity>
7.4771890640

> <CNN_VS>
3.4633464813

> <CNNaffinity_variance>
1.0355255604

$$$$
[H]Oc1c([H])c([H])c(C(=O)c2c(C([H])([H])C([H])([H])[H])n(-c3c([H])c([H])c([H])c([H])c3[H])c(=O)c3c([H])c([H])c([H])c([H])c23)c([H])c1[H]


 29 32  0  0  0  0  0  0  0  0999 V2000
    9.9575   45.9283  130.7882 C   0  0  0  0  0  0  0  0  0  0  0  0
    9.6051   47.2505  130.6574 C   0  0  0  0  0  0  0  0  0  0  0  0
    9.8537   48.1107  131.7287 C   0  0  0  0  0  0  0  0  0  0  0  0
    9.5006   49.4358  131.5861 C   0  0  0  0  0  0  0  0  0  0  0  0
    9.7484   50.2921  132.6546 C   0  0  0  0  0  0  0  0  0  0  0  0
   10.3247   49.8294  133.8111 C   0  0  0  0  0  0  0  0  0  0  0  0
   10.6702   48.5048  133.9298 C   0  0  0  0  0  0  0  0  0  0  0  0
   10.4436   47.5997  132.8859 C   0  0  0  0  0  0  0  0  0  0  0  0
   10.7818   46.2826  132.9940 C   0  0  0  0  0  0  0  0  0  0  0  0
   11.3037   45.8038  134.0129 O   0  0  0  0  0  0  0  0  0  0  0  0
   10.5329   45.4691  131.9433 N   0  0  0  0  0  0  0  0  0  0  0  0
   10.8512   44.0744  132.0352 C   0  0  0  0  0  0  0  0  0  0  0  0
    9.7438   43.2654  132.3127 C   0  0  0  0  0  0  0  0  0  0  0  0
    9.9409   41.9034  132.4459 C   0  0  0  0  0  0  0  0  0  0  0  0
   11.2050   41.3767  132.3062 C   0  0  0  0  0  0  0  0  0  0  0  0
   12.2916   42.2047  132.0307 C   0  0  0  0  0  0  0  0  0  0  0  0
   12.1143   43.5669  131.8931 C   0  0  0  0  0  0  0  0  0  0  0  0
   10.9373   44.7853  128.7453 C   0  0  0  0  0  0  0  0  0  0  0  0
    9.8192   44.9924  129.6892 C   0  0  0  0  0  0  0  0  0  0  0  0
    8.9002   47.7427  129.5038 C   0  0  0  0  0  0  0  0  0  0  0  0
    9.6531   47.6977  128.4322 O   0  0  0  0  0  0  0  0  0  0  0  0
    7.5691   48.2466  129.3475 C   0  0  0  0  0  0  0  0  0  0  0  0
    6.4545   47.5394  129.0010 C   0  0  0  0  0  0  0  0  0  0  0  0
    5.1749   48.1070  128.8783 C   0  0  0  0  0  0  0  0  0  0  0  0
    5.0217   49.4750  129.1245 C   0  0  0  0  0  0  0  0  0  0  0  0
    3.7370   50.0452  129.0038 O   0  0  0  0  0  0  0  0  0  0  0  0
    6.1067   50.2055  129.4684 C   0  0  0  0  0  0  0  0  0  0  0  0
    7.3515   49.6191  129.5807 C   0  0  0  0  0  0  0  0  0  0  0  0
    3.1607   50.0554  129.8376 H   0  0  0  0  0  0  0  0  0  0  0  0
 18 19  1  0  0  0
 19  1  1  0  0  0
  1  2  2  0  0  0
  2 20  1  0  0  0
 20 21  2  0  0  0
 20 22  1  0  0  0
 22 23  2  0  0  0
 23 24  1  0  0  0
 24 25  2  0  0  0
 25 26  1  0  0  0
 25 27  1  0  0  0
 27 28  2  0  0  0
  2  3  1  0  0  0
  3  4  2  0  0  0
  4  5  1  0  0  0
  5  6  2  0  0  0
  6  7  1  0  0  0
  7  8  2  0  0  0
  8  9  1  0  0  0
  9 10  2  0  0  0
  9 11  1  0  0  0
 11 12  1  0  0  0
 12 13  2  0  0  0
 13 14  1  0  0  0
 14 15  2  0  0  0
 15 16  1  0  0  0
 16 17  2  0  0  0
 11  1  1  0  0  0
 17 12  1  0  0  0
 28 22  1  0  0  0
  8  3  1  0  0  0
 26 29  1  0  0  0
M  END
> <minimizedAffinity>
-2.90431

> <CNNscore>
0.4552517831

> <CNNaffinity>
7.4157819748

> <CNN_VS>
3.3760478497

> <CNNaffinity_variance>
0.8472576141

$$$$
[H]Oc1c([H])c([H])c(C(=O)c2c(C([H])([H])C([H])([H])[H])n(-c3c([H])c([H])c([H])c([H])c3[H])c(=O)c3c([H])c([H])c([H])c([H])c23)c([H])c1[H]


 29 32  0  0  0  0  0  0  0  0999 V2000
    9.4696   44.8652  131.3470 C   0  0  0  0  0  0  0  0  0  0  0  0
    9.5196   44.7097  132.7119 C   0  0  0  0  0  0  0  0  0  0  0  0
   10.7667   44.5231  133.3113 C   0  0  0  0  0  0  0  0  0  0  0  0
   10.8068   44.3724  134.6811 C   0  0  0  0  0  0  0  0  0  0  0  0
   12.0501   44.1860  135.2775 C   0  0  0  0  0  0  0  0  0  0  0  0
   13.1967   44.1530  134.5238 C   0  0  0  0  0  0  0  0  0  0  0  0
   13.1326   44.3076  133.1600 C   0  0  0  0  0  0  0  0  0  0  0  0
   11.9082   44.4982  132.5084 C   0  0  0  0  0  0  0  0  0  0  0  0
   11.8335   44.6515  131.1549 C   0  0  0  0  0  0  0  0  0  0  0  0
   12.8328   44.6296  130.4196 O   0  0  0  0  0  0  0  0  0  0  0  0
   10.6154   44.8323  130.5971 N   0  0  0  0  0  0  0  0  0  0  0  0
   10.4999   44.9689  129.1748 C   0  0  0  0  0  0  0  0  0  0  0  0
   10.2603   43.7588  128.5145 C   0  0  0  0  0  0  0  0  0  0  0  0
   10.1544   43.7712  127.1360 C   0  0  0  0  0  0  0  0  0  0  0  0
   10.2861   44.9567  126.4489 C   0  0  0  0  0  0  0  0  0  0  0  0
   10.5255   46.1485  127.1306 C   0  0  0  0  0  0  0  0  0  0  0  0
   10.6331   46.1561  128.5069 C   0  0  0  0  0  0  0  0  0  0  0  0
    7.7260   46.5455  130.5879 C   0  0  0  0  0  0  0  0  0  0  0  0
    8.2261   45.1567  130.6601 C   0  0  0  0  0  0  0  0  0  0  0  0
    8.3291   44.6288  133.5156 C   0  0  0  0  0  0  0  0  0  0  0  0
    7.9465   45.8156  133.9184 O   0  0  0  0  0  0  0  0  0  0  0  0
    7.5322   43.5112  133.9230 C   0  0  0  0  0  0  0  0  0  0  0  0
    6.5183   43.5101  134.8366 C   0  0  0  0  0  0  0  0  0  0  0  0
    5.7725   42.3684  135.1758 C   0  0  0  0  0  0  0  0  0  0  0  0
    6.0768   41.1572  134.5464 C   0  0  0  0  0  0  0  0  0  0  0  0
    5.3271   40.0111  134.8848 O   0  0  0  0  0  0  0  0  0  0  0  0
    7.0773   41.1233  133.6372 C   0  0  0  0  0  0  0  0  0  0  0  0
    7.7926   42.2621  133.3249 C   0  0  0  0  0  0  0  0  0  0  0  0
    4.4928   39.8320  134.3376 H   0  0  0  0  0  0  0  0  0  0  0  0
 18 19  1  0  0  0
 19  1  1  0  0  0
  1  2  2  0  0  0
  2 20  1  0  0  0
 20 21  2  0  0  0
 20 22  1  0  0  0
 22 23  2  0  0  0
 23 24  1  0  0  0
 24 25  2  0  0  0
 25 26  1  0  0  0
 25 27  1  0  0  0
 27 28  2  0  0  0
  2  3  1  0  0  0
  3  4  2  0  0  0
  4  5  1  0  0  0
  5  6  2  0  0  0
  6  7  1  0  0  0
  7  8  2  0  0  0
  8  9  1  0  0  0
  9 10  2  0  0  0
  9 11  1  0  0  0
 11 12  1  0  0  0
 12 13  2  0  0  0
 13 14  1  0  0  0
 14 15  2  0  0  0
 15 16  1  0  0  0
 16 17  2  0  0  0
 11  1  1  0  0  0
 17 12  1  0  0  0
 28 22  1  0  0  0
  8  3  1  0  0  0
 26 29  1  0  0  0
M  END
> <minimizedAffinity>
19.22105

> <CNNscore>
0.4496606588

> <CNNaffinity>
6.9647088051

> <CNN_VS>
3.1317555904

> <CNNaffinity_variance>
1.6050980091

$$$$
[H]Oc1c([H])c([H])c(C(=O)c2c(C([H])([H])C([H])([H])[H])n(-c3c([H])c([H])c([H])c([H])c3[H])c(=O)c3c([H])c([H])c([H])c([H])c23)c([H])c1[H]


 29 32  0  0  0  0  0  0  0  0999 V2000
   10.1047   46.0051  131.9462 C   0  0  0  0  0  0  0  0  0  0  0  0
    9.6553   46.8857  130.9912 C   0  0  0  0  0  0  0  0  0  0  0  0
    9.5056   48.2276  131.3465 C   0  0  0  0  0  0  0  0  0  0  0  0
    9.0584   49.1036  130.3804 C   0  0  0  0  0  0  0  0  0  0  0  0
    8.9091   50.4407  130.7358 C   0  0  0  0  0  0  0  0  0  0  0  0
    9.1977   50.8697  132.0071 C   0  0  0  0  0  0  0  0  0  0  0  0
    9.6442   49.9788  132.9530 C   0  0  0  0  0  0  0  0  0  0  0  0
    9.8125   48.6223  132.6497 C   0  0  0  0  0  0  0  0  0  0  0  0
   10.2540   47.7295  133.5817 C   0  0  0  0  0  0  0  0  0  0  0  0
   10.5298   48.0549  134.7470 O   0  0  0  0  0  0  0  0  0  0  0  0
   10.3926   46.4359  133.2143 N   0  0  0  0  0  0  0  0  0  0  0  0
   10.8280   45.4677  134.1776 C   0  0  0  0  0  0  0  0  0  0  0  0
   12.0799   44.9142  133.8872 C   0  0  0  0  0  0  0  0  0  0  0  0
   12.5870   43.9509  134.7397 C   0  0  0  0  0  0  0  0  0  0  0  0
   11.8605   43.5593  135.8414 C   0  0  0  0  0  0  0  0  0  0  0  0
   10.6154   44.1258  136.1076 C   0  0  0  0  0  0  0  0  0  0  0  0
   10.0931   45.0899  135.2686 C   0  0  0  0  0  0  0  0  0  0  0  0
    9.4191   43.5633  132.0334 C   0  0  0  0  0  0  0  0  0  0  0  0
   10.3759   44.6157  131.6318 C   0  0  0  0  0  0  0  0  0  0  0  0
    9.2397   46.4491  129.6848 C   0  0  0  0  0  0  0  0  0  0  0  0
    8.4357   47.3203  129.1264 O   0  0  0  0  0  0  0  0  0  0  0  0
    9.5528   45.2717  128.9327 C   0  0  0  0  0  0  0  0  0  0  0  0
   10.6586   45.0541  128.1630 C   0  0  0  0  0  0  0  0  0  0  0  0
   10.9002   43.8611  127.4607 C   0  0  0  0  0  0  0  0  0  0  0  0
    9.9608   42.8290  127.5488 C   0  0  0  0  0  0  0  0  0  0  0  0
   10.2037   41.6303  126.8459 O   0  0  0  0  0  0  0  0  0  0  0  0
    8.8526   43.0128  128.3019 C   0  0  0  0  0  0  0  0  0  0  0  0
    8.6430   44.1967  128.9805 C   0  0  0  0  0  0  0  0  0  0  0  0
   10.7167   40.9074  127.3375 H   0  0  0  0  0  0  0  0  0  0  0  0
 18 19  1  0  0  0
 19  1  1  0  0  0
  1  2  2  0  0  0
  2 20  1  0  0  0
 20 21  2  0  0  0
 20 22  1  0  0  0
 22 23  2  0  0  0
 23 24  1  0  0  0
 24 25  2  0  0  0
 25 26  1  0  0  0
 25 27  1  0  0  0
 27 28  2  0  0  0
  2  3  1  0  0  0
  3  4  2  0  0  0
  4  5  1  0  0  0
  5  6  2  0  0  0
  6  7  1  0  0  0
  7  8  2  0  0  0
  8  9  1  0  0  0
  9 10  2  0  0  0
  9 11  1  0  0  0
 11 12  1  0  0  0
 12 13  2  0  0  0
 13 14  1  0  0  0
 14 15  2  0  0  0
 15 16  1  0  0  0
 16 17  2  0  0  0
 11  1  1  0  0  0
 17 12  1  0  0  0
 28 22  1  0  0  0
  8  3  1  0  0  0
 26 29  1  0  0  0
M  END
> <minimizedAffinity>
0.72978

> <CNNscore>
0.4461216033

> <CNNaffinity>
7.4825110435

> <CNN_VS>
3.3381097317

> <CNNaffinity_variance>
1.8411967754

$$$$
[H]c1c([H])c([H])c([C@@]2([H])N(C([H])([H])[H])C([H])([H])C([H])([H])N(c3c([H])c(C([H])([H])[H])c([H])c4c([H])c([H])c([H])c([H])c34)C2([H])[H])c(F)c1[H]


 25 28  0  0  0  0  0  0  0  0999 V2000
   10.7743   46.1751  131.9201 N   0  0  0  0  0  0  0  0  0  0  0  0
   12.1914   46.1163  131.8499 C   0  0  0  0  0  0  0  0  0  0  0  0
   12.7890   44.8521  131.3420 C   0  0  0  0  0  0  0  0  0  0  0  0
   11.9543   43.7127  131.4144 N   0  0  0  0  0  0  0  0  0  0  0  0
   11.9193   43.0610  132.6971 C   0  0  0  0  0  0  0  0  0  0  0  0
   10.6235   43.9275  130.8774 C   0  0  0  0  0  0  0  0  0  0  0  0
    9.9541   45.1753  131.2766 C   0  0  0  0  0  0  0  0  0  0  0  0
    9.1518   50.7638  131.6558 C   0  0  0  0  0  0  0  0  0  0  0  0
    9.3267   49.5333  132.5025 C   0  0  0  0  0  0  0  0  0  0  0  0
    9.9039   48.4515  131.9322 C   0  0  0  0  0  0  0  0  0  0  0  0
   10.1282   47.2364  132.6028 C   0  0  0  0  0  0  0  0  0  0  0  0
    9.7163   47.1935  133.9208 C   0  0  0  0  0  0  0  0  0  0  0  0
    9.8853   46.0508  134.6431 C   0  0  0  0  0  0  0  0  0  0  0  0
    9.4652   46.0174  135.9575 C   0  0  0  0  0  0  0  0  0  0  0  0
    8.8741   47.0811  136.6031 C   0  0  0  0  0  0  0  0  0  0  0  0
    8.7156   48.2215  135.8443 C   0  0  0  0  0  0  0  0  0  0  0  0
    9.1201   48.3047  134.5209 C   0  0  0  0  0  0  0  0  0  0  0  0
    8.9293   49.4746  133.7988 C   0  0  0  0  0  0  0  0  0  0  0  0
   10.5279   43.5775  129.4397 C   0  0  0  0  0  0  0  0  0  0  0  0
   11.4751   43.9123  128.5081 C   0  0  0  0  0  0  0  0  0  0  0  0
   11.3215   43.5764  127.1660 C   0  0  0  0  0  0  0  0  0  0  0  0
   10.1908   42.8966  126.7908 C   0  0  0  0  0  0  0  0  0  0  0  0
    9.2160   42.5443  127.7034 C   0  0  0  0  0  0  0  0  0  0  0  0
    9.3863   42.8844  129.0194 C   0  0  0  0  0  0  0  0  0  0  0  0
    8.4110   42.5288  129.9209 F   0  0  0  0  0  0  0  0  0  0  0  0
  8  9  1  0  0  0
  9 10  2  0  0  0
 10 11  1  0  0  0
 11  1  1  0  0  0
  1  2  1  0  0  0
  2  3  1  0  0  0
  3  4  1  0  0  0
  4  5  1  0  0  0
  4  6  1  0  0  0
  6  7  1  0  0  0
  6 19  1  0  0  0
 19 20  2  0  0  0
 20 21  1  0  0  0
 21 22  2  0  0  0
 22 23  1  0  0  0
 23 24  2  0  0  0
 24 25  1  0  0  0
 11 12  2  0  0  0
 12 13  1  0  0  0
 13 14  2  0  0  0
 14 15  1  0  0  0
 15 16  2  0  0  0
 16 17  1  0  0  0
 17 18  2  0  0  0
 18  9  1  0  0  0
  7  1  1  0  0  0
 24 19  1  0  0  0
 17 12  1  0  0  0
M  END
> <minimizedAffinity>
7.33116

> <CNNscore>
0.4875655174

> <CNNaffinity>
7.2035546303

> <CNN_VS>
3.5122048855

> <CNNaffinity_variance>
2.0504798889

$$$$
[H]c1c([H])c([H])c([C@@]2([H])N(C([H])([H])[H])C([H])([H])C([H])([H])N(c3c([H])c(C([H])([H])[H])c([H])c4c([H])c([H])c([H])c([H])c34)C2([H])[H])c(F)c1[H]


 25 28  0  0  0  0  0  0  0  0999 V2000
   10.4531   45.8893  132.5000 N   0  0  0  0  0  0  0  0  0  0  0  0
   11.0443   46.9927  131.8294 C   0  0  0  0  0  0  0  0  0  0  0  0
   11.6927   46.7161  130.5192 C   0  0  0  0  0  0  0  0  0  0  0  0
   12.0553   45.3681  130.2926 N   0  0  0  0  0  0  0  0  0  0  0  0
   13.3051   44.9640  130.8807 C   0  0  0  0  0  0  0  0  0  0  0  0
   10.9918   44.4213  130.5722 C   0  0  0  0  0  0  0  0  0  0  0  0
   10.2477   44.6293  131.8242 C   0  0  0  0  0  0  0  0  0  0  0  0
    7.7549   48.4124  135.6800 C   0  0  0  0  0  0  0  0  0  0  0  0
    8.6988   47.2629  135.4577 C   0  0  0  0  0  0  0  0  0  0  0  0
    9.1415   47.0441  134.1988 C   0  0  0  0  0  0  0  0  0  0  0  0
   10.0235   46.0078  133.8459 C   0  0  0  0  0  0  0  0  0  0  0  0
   10.4336   45.1901  134.8812 C   0  0  0  0  0  0  0  0  0  0  0  0
   11.2802   44.1536  134.6269 C   0  0  0  0  0  0  0  0  0  0  0  0
   11.6792   43.3398  135.6680 C   0  0  0  0  0  0  0  0  0  0  0  0
   11.2720   43.5059  136.9735 C   0  0  0  0  0  0  0  0  0  0  0  0
   10.4142   44.5621  137.1971 C   0  0  0  0  0  0  0  0  0  0  0  0
    9.9841   45.4070  136.1856 C   0  0  0  0  0  0  0  0  0  0  0  0
    9.1128   46.4511  136.4634 C   0  0  0  0  0  0  0  0  0  0  0  0
   10.1680   44.1230  129.3761 C   0  0  0  0  0  0  0  0  0  0  0  0
    8.8049   44.2567  129.3354 C   0  0  0  0  0  0  0  0  0  0  0  0
    8.0800   43.9400  128.1901 C   0  0  0  0  0  0  0  0  0  0  0  0
    8.7647   43.4862  127.0915 C   0  0  0  0  0  0  0  0  0  0  0  0
   10.1377   43.3389  127.0984 C   0  0  0  0  0  0  0  0  0  0  0  0
   10.8325   43.6560  128.2356 C   0  0  0  0  0  0  0  0  0  0  0  0
   12.1993   43.5069  128.2330 F   0  0  0  0  0  0  0  0  0  0  0  0
  8  9  1  0  0  0
  9 10  2  0  0  0
 10 11  1  0  0  0
 11  1  1  0  0  0
  1  2  1  0  0  0
  2  3  1  0  0  0
  3  4  1  0  0  0
  4  5  1  0  0  0
  4  6  1  0  0  0
  6  7  1  0  0  0
  6 19  1  0  0  0
 19 20  2  0  0  0
 20 21  1  0  0  0
 21 22  2  0  0  0
 22 23  1  0  0  0
 23 24  2  0  0  0
 24 25  1  0  0  0
 11 12  2  0  0  0
 12 13  1  0  0  0
 13 14  2  0  0  0
 14 15  1  0  0  0
 15 16  2  0  0  0
 16 17  1  0  0  0
 17 18  2  0  0  0
 18  9  1  0  0  0
  7  1  1  0  0  0
 24 19  1  0  0  0
 17 12  1  0  0  0
M  END
> <minimizedAffinity>
14.28316

> <CNNscore>
0.4623246789

> <CNNaffinity>
7.2139768600

> <CNN_VS>
3.3351995945

> <CNNaffinity_variance>
3.7970314026

$$$$
[H]c1c([H])c([H])c([C@@]2([H])N(C([H])([H])[H])C([H])([H])C([H])([H])N(c3c([H])c(C([H])([H])[H])c([H])c4c([H])c([H])c([H])c([H])c34)C2([H])[H])c(F)c1[H]


 25 28  0  0  0  0  0  0  0  0999 V2000
    9.1036   46.6548  131.1521 N   0  0  0  0  0  0  0  0  0  0  0  0
    9.0629   46.0066  132.4149 C   0  0  0  0  0  0  0  0  0  0  0  0
    9.5413   44.5988  132.4654 C   0  0  0  0  0  0  0  0  0  0  0  0
    9.5521   43.9153  131.2273 N   0  0  0  0  0  0  0  0  0  0  0  0
    8.2862   43.3630  130.8228 C   0  0  0  0  0  0  0  0  0  0  0  0
   10.1889   44.6573  130.1552 C   0  0  0  0  0  0  0  0  0  0  0  0
    9.8248   46.0782  130.0413 C   0  0  0  0  0  0  0  0  0  0  0  0
    9.1665   51.4349  132.1034 C   0  0  0  0  0  0  0  0  0  0  0  0
    8.4560   50.2896  131.4362 C   0  0  0  0  0  0  0  0  0  0  0  0
    9.0106   49.0602  131.5334 C   0  0  0  0  0  0  0  0  0  0  0  0
    8.4578   47.9020  130.9591 C   0  0  0  0  0  0  0  0  0  0  0  0
    7.2780   48.0818  130.2632 C   0  0  0  0  0  0  0  0  0  0  0  0
    6.6787   47.0145  129.6651 C   0  0  0  0  0  0  0  0  0  0  0  0
    5.5031   47.2066  128.9679 C   0  0  0  0  0  0  0  0  0  0  0  0
    4.8808   48.4280  128.8313 C   0  0  0  0  0  0  0  0  0  0  0  0
    5.5134   49.4878  129.4462 C   0  0  0  0  0  0  0  0  0  0  0  0
    6.6952   49.3466  130.1570 C   0  0  0  0  0  0  0  0  0  0  0  0
    7.2959   50.4483  130.7501 C   0  0  0  0  0  0  0  0  0  0  0  0
   11.6347   44.3519  130.0339 C   0  0  0  0  0  0  0  0  0  0  0  0
   12.4027   43.8737  131.0630 C   0  0  0  0  0  0  0  0  0  0  0  0
   13.7624   43.6257  130.8974 C   0  0  0  0  0  0  0  0  0  0  0  0
   14.3240   43.8728  129.6706 C   0  0  0  0  0  0  0  0  0  0  0  0
   13.5796   44.3555  128.6124 C   0  0  0  0  0  0  0  0  0  0  0  0
   12.2430   44.5930  128.7961 C   0  0  0  0  0  0  0  0  0  0  0  0
   11.5097   45.0728  127.7367 F   0  0  0  0  0  0  0  0  0  0  0  0
  8  9  1  0  0  0
  9 10  2  0  0  0
 10 11  1  0  0  0
 11  1  1  0  0  0
  1  2  1  0  0  0
  2  3  1  0  0  0
  3  4  1  0  0  0
  4  5  1  0  0  0
  4  6  1  0  0  0
  6  7  1  0  0  0
  6 19  1  0  0  0
 19 20  2  0  0  0
 20 21  1  0  0  0
 21 22  2  0  0  0
 22 23  1  0  0  0
 23 24  2  0  0  0
 24 25  1  0  0  0
 11 12  2  0  0  0
 12 13  1  0  0  0
 13 14  2  0  0  0
 14 15  1  0  0  0
 15 16  2  0  0  0
 16 17  1  0  0  0
 17 18  2  0  0  0
 18  9  1  0  0  0
  7  1  1  0  0  0
 24 19  1  0  0  0
 17 12  1  0  0  0
M  END
> <minimizedAffinity>
-0.25558

> <CNNscore>
0.4430167377

> <CNNaffinity>
7.0460243225

> <CNN_VS>
3.1215066910

> <CNNaffinity_variance>
1.2266730070

$$$$
[H]c1c([H])c([H])c([C@@]2([H])N(C([H])([H])[H])C([H])([H])C([H])([H])N(c3c([H])c(C([H])([H])[H])c([H])c4c([H])c([H])c([H])c([H])c34)C2([H])[H])c(F)c1[H]


 25 28  0  0  0  0  0  0  0  0999 V2000
    9.7312   45.8187  130.3760 N   0  0  0  0  0  0  0  0  0  0  0  0
    9.0014   45.2644  129.2913 C   0  0  0  0  0  0  0  0  0  0  0  0
    7.6272   45.7883  129.0661 C   0  0  0  0  0  0  0  0  0  0  0  0
    7.0275   46.4213  130.1795 N   0  0  0  0  0  0  0  0  0  0  0  0
    6.4215   45.5320  131.1351 C   0  0  0  0  0  0  0  0  0  0  0  0
    7.8772   47.4088  130.8187 C   0  0  0  0  0  0  0  0  0  0  0  0
    9.2758   47.0138  131.0475 C   0  0  0  0  0  0  0  0  0  0  0  0
   14.1657   44.2647  129.0802 C   0  0  0  0  0  0  0  0  0  0  0  0
   13.1560   44.4239  130.1833 C   0  0  0  0  0  0  0  0  0  0  0  0
   11.9763   45.0108  129.8794 C   0  0  0  0  0  0  0  0  0  0  0  0
   10.9437   45.2253  130.8091 C   0  0  0  0  0  0  0  0  0  0  0  0
   11.1969   44.7945  132.0971 C   0  0  0  0  0  0  0  0  0  0  0  0
   10.2548   44.9726  133.0650 C   0  0  0  0  0  0  0  0  0  0  0  0
   10.5206   44.5431  134.3495 C   0  0  0  0  0  0  0  0  0  0  0  0
   11.6968   43.9348  134.7292 C   0  0  0  0  0  0  0  0  0  0  0  0
   12.6299   43.7713  133.7273 C   0  0  0  0  0  0  0  0  0  0  0  0
   12.4111   44.1859  132.4226 C   0  0  0  0  0  0  0  0  0  0  0  0
   13.3878   44.0051  131.4533 C   0  0  0  0  0  0  0  0  0  0  0  0
    7.6748   48.7718  130.2712 C   0  0  0  0  0  0  0  0  0  0  0  0
    7.0142   49.0334  129.0997 C   0  0  0  0  0  0  0  0  0  0  0  0
    6.8738   50.3333  128.6221 C   0  0  0  0  0  0  0  0  0  0  0  0
    7.4160   51.3579  129.3554 C   0  0  0  0  0  0  0  0  0  0  0  0
    8.0887   51.1297  130.5397 C   0  0  0  0  0  0  0  0  0  0  0  0
    8.2159   49.8431  130.9922 C   0  0  0  0  0  0  0  0  0  0  0  0
    8.8866   49.6256  132.1726 F   0  0  0  0  0  0  0  0  0  0  0  0
  8  9  1  0  0  0
  9 10  2  0  0  0
 10 11  1  0  0  0
 11  1  1  0  0  0
  1  2  1  0  0  0
  2  3  1  0  0  0
  3  4  1  0  0  0
  4  5  1  0  0  0
  4  6  1  0  0  0
  6  7  1  0  0  0
  6 19  1  0  0  0
 19 20  2  0  0  0
 20 21  1  0  0  0
 21 22  2  0  0  0
 22 23  1  0  0  0
 23 24  2  0  0  0
 24 25  1  0  0  0
 11 12  2  0  0  0
 12 13  1  0  0  0
 13 14  2  0  0  0
 14 15  1  0  0  0
 15 16  2  0  0  0
 16 17  1  0  0  0
 17 18  2  0  0  0
 18  9  1  0  0  0
  7  1  1  0  0  0
 24 19  1  0  0  0
 17 12  1  0  0  0
M  END
> <minimizedAffinity>
-1.81004

> <CNNscore>
0.4195882380

> <CNNaffinity>
7.2014589310

> <CNN_VS>
3.0216474533

> <CNNaffinity_variance>
1.5527439117

$$$$
[H]c1c([H])c([H])c([C@@]2([H])N(C([H])([H])[H])C([H])([H])C([H])([H])N(c3c([H])c(C([H])([H])[H])c([H])c4c([H])c([H])c([H])c([H])c34)C2([H])[H])c(F)c1[H]


 25 28  0  0  0  0  0  0  0  0999 V2000
    8.6388   46.1436  131.9968 N   0  0  0  0  0  0  0  0  0  0  0  0
    7.3035   46.1954  131.5161 C   0  0  0  0  0  0  0  0  0  0  0  0
    7.1215   46.3295  130.0456 C   0  0  0  0  0  0  0  0  0  0  0  0
    8.2352   46.8396  129.3389 N   0  0  0  0  0  0  0  0  0  0  0  0
    8.3625   48.2731  129.3509 C   0  0  0  0  0  0  0  0  0  0  0  0
    9.4863   46.1802  129.6640 C   0  0  0  0  0  0  0  0  0  0  0  0
    9.7492   45.9513  131.0933 C   0  0  0  0  0  0  0  0  0  0  0  0
    7.8859   48.6919  136.0831 C   0  0  0  0  0  0  0  0  0  0  0  0
    8.5672   47.5187  135.4342 C   0  0  0  0  0  0  0  0  0  0  0  0
    8.3437   47.3081  134.1173 C   0  0  0  0  0  0  0  0  0  0  0  0
    8.9120   46.2520  133.3837 C   0  0  0  0  0  0  0  0  0  0  0  0
    9.7402   45.4050  134.0946 C   0  0  0  0  0  0  0  0  0  0  0  0
   10.3247   44.3480  133.4645 C   0  0  0  0  0  0  0  0  0  0  0  0
   11.1461   43.5052  134.1857 C   0  0  0  0  0  0  0  0  0  0  0  0
   11.4212   43.6612  135.5265 C   0  0  0  0  0  0  0  0  0  0  0  0
   10.8128   44.7386  136.1351 C   0  0  0  0  0  0  0  0  0  0  0  0
    9.9794   45.6131  135.4547 C   0  0  0  0  0  0  0  0  0  0  0  0
    9.3848   46.6779  136.1172 C   0  0  0  0  0  0  0  0  0  0  0  0
    9.7760   45.0370  128.7652 C   0  0  0  0  0  0  0  0  0  0  0  0
    8.8211   44.1729  128.2975 C   0  0  0  0  0  0  0  0  0  0  0  0
    9.1547   43.1020  127.4732 C   0  0  0  0  0  0  0  0  0  0  0  0
   10.4726   42.9271  127.1353 C   0  0  0  0  0  0  0  0  0  0  0  0
   11.4604   43.7786  127.5896 C   0  0  0  0  0  0  0  0  0  0  0  0
   11.1110   44.8263  128.3999 C   0  0  0  0  0  0  0  0  0  0  0  0
   12.1011   45.6692  128.8468 F   0  0  0  0  0  0  0  0  0  0  0  0
  8  9  1  0  0  0
  9 10  2  0  0  0
 10 11  1  0  0  0
 11  1  1  0  0  0
  1  2  1  0  0  0
  2  3  1  0  0  0
  3  4  1  0  0  0
  4  5  1  0  0  0
  4  6  1  0  0  0
  6  7  1  0  0  0
  6 19  1  0  0  0
 19 20  2  0  0  0
 20 21  1  0  0  0
 21 22  2  0  0  0
 22 23  1  0  0  0
 23 24  2  0  0  0
 24 25  1  0  0  0
 11 12  2  0  0  0
 12 13  1  0  0  0
 13 14  2  0  0  0
 14 15  1  0  0  0
 15 16  2  0  0  0
 16 17  1  0  0  0
 17 18  2  0  0  0
 18  9  1  0  0  0
  7  1  1  0  0  0
 24 19  1  0  0  0
 17 12  1  0  0  0
M  END
> <minimizedAffinity>
3.49416

> <CNNscore>
0.3628400862

> <CNNaffinity>
6.8804826736

> <CNN_VS>
2.4965150356

> <CNNaffinity_variance>
0.7193592787

$$$$
[H]c1c([H])c([H])c([C@@]2([H])N(C([H])([H])[H])C([H])([H])C([H])([H])N(c3c([H])c(C([H])([H])[H])c([H])c4c([H])c([H])c([H])c([H])c34)C2([H])[H])c(F)c1[H]


 25 28  0  0  0  0  0  0  0  0999 V2000
   10.1216   46.9061  132.3558 N   0  0  0  0  0  0  0  0  0  0  0  0
   11.4560   46.7715  132.8225 C   0  0  0  0  0  0  0  0  0  0  0  0
   11.8234   45.4723  133.4474 C   0  0  0  0  0  0  0  0  0  0  0  0
   10.7395   44.6971  133.9211 N   0  0  0  0  0  0  0  0  0  0  0  0
   10.2461   45.0665  135.2216 C   0  0  0  0  0  0  0  0  0  0  0  0
    9.6665   44.5411  132.9568 C   0  0  0  0  0  0  0  0  0  0  0  0
    9.2528   45.7578  132.2407 C   0  0  0  0  0  0  0  0  0  0  0  0
    9.7947   51.6459  133.4449 C   0  0  0  0  0  0  0  0  0  0  0  0
    9.4232   50.5400  132.4959 C   0  0  0  0  0  0  0  0  0  0  0  0
    9.8842   49.2972  132.7635 C   0  0  0  0  0  0  0  0  0  0  0  0
    9.6175   48.1719  131.9640 C   0  0  0  0  0  0  0  0  0  0  0  0
    8.8344   48.4000  130.8490 C   0  0  0  0  0  0  0  0  0  0  0  0
    8.5355   47.3673  130.0123 C   0  0  0  0  0  0  0  0  0  0  0  0
    7.7566   47.6078  128.8984 C   0  0  0  0  0  0  0  0  0  0  0  0
    7.2504   48.8452  128.5665 C   0  0  0  0  0  0  0  0  0  0  0  0
    7.5726   49.8691  129.4320 C   0  0  0  0  0  0  0  0  0  0  0  0
    8.3516   49.6790  130.5630 C   0  0  0  0  0  0  0  0  0  0  0  0
    8.6539   50.7463  131.3972 C   0  0  0  0  0  0  0  0  0  0  0  0
    9.8253   43.3259  132.1221 C   0  0  0  0  0  0  0  0  0  0  0  0
   10.7721   42.3619  132.3498 C   0  0  0  0  0  0  0  0  0  0  0  0
   10.8896   41.2516  131.5187 C   0  0  0  0  0  0  0  0  0  0  0  0
   10.0299   41.1408  130.4556 C   0  0  0  0  0  0  0  0  0  0  0  0
    9.0648   42.0941  130.1966 C   0  0  0  0  0  0  0  0  0  0  0  0
    8.9658   43.1793  131.0267 C   0  0  0  0  0  0  0  0  0  0  0  0
    8.0016   44.1229  130.7615 F   0  0  0  0  0  0  0  0  0  0  0  0
  8  9  1  0  0  0
  9 10  2  0  0  0
 10 11  1  0  0  0
 11  1  1  0  0  0
  1  2  1  0  0  0
  2  3  1  0  0  0
  3  4  1  0  0  0
  4  5  1  0  0  0
  4  6  1  0  0  0
  6  7  1  0  0  0
  6 19  1  0  0  0
 19 20  2  0  0  0
 20 21  1  0  0  0
 21 22  2  0  0  0
 22 23  1  0  0  0
 23 24  2  0  0  0
 24 25  1  0  0  0
 11 12  2  0  0  0
 12 13  1  0  0  0
 13 14  2  0  0  0
 14 15  1  0  0  0
 15 16  2  0  0  0
 16 17  1  0  0  0
 17 18  2  0  0  0
 18  9  1  0  0  0
  7  1  1  0  0  0
 24 19  1  0  0  0
 17 12  1  0  0  0
M  END
> <minimizedAffinity>
-1.18907

> <CNNscore>
0.3561016023

> <CNNaffinity>
7.1929168701

> <CNN_VS>
2.5614092350

> <CNNaffinity_variance>
0.7295411825

$$$$
[H]c1c([H])c([H])c([C@@]2([H])N(C([H])([H])[H])C([H])([H])C([H])([H])N(c3c([H])c(C([H])([H])[H])c([H])c4c([H])c([H])c([H])c([H])c34)C2([H])[H])c(F)c1[H]


 25 28  0  0  0  0  0  0  0  0999 V2000
    9.8999   46.0149  131.1160 N   0  0  0  0  0  0  0  0  0  0  0  0
   10.6743   46.2614  129.9515 C   0  0  0  0  0  0  0  0  0  0  0  0
    9.9445   46.7359  128.7450 C   0  0  0  0  0  0  0  0  0  0  0  0
    8.5569   46.4634  128.7271 N   0  0  0  0  0  0  0  0  0  0  0  0
    8.1999   45.1375  128.2960 C   0  0  0  0  0  0  0  0  0  0  0  0
    7.8709   46.8409  129.9487 C   0  0  0  0  0  0  0  0  0  0  0  0
    8.5299   46.4632  131.2087 C   0  0  0  0  0  0  0  0  0  0  0  0
   13.5120   45.9365  134.3879 C   0  0  0  0  0  0  0  0  0  0  0  0
   12.2689   45.2722  133.8634 C   0  0  0  0  0  0  0  0  0  0  0  0
   11.6348   45.8535  132.8201 C   0  0  0  0  0  0  0  0  0  0  0  0
   10.4643   45.3446  132.2304 C   0  0  0  0  0  0  0  0  0  0  0  0
    9.9703   44.1800  132.7855 C   0  0  0  0  0  0  0  0  0  0  0  0
    8.8331   43.6230  132.2829 C   0  0  0  0  0  0  0  0  0  0  0  0
    8.3455   42.4623  132.8487 C   0  0  0  0  0  0  0  0  0  0  0  0
    8.9407   41.8146  133.9088 C   0  0  0  0  0  0  0  0  0  0  0  0
   10.0880   42.4045  134.3955 C   0  0  0  0  0  0  0  0  0  0  0  0
   10.6171   43.5699  133.8625 C   0  0  0  0  0  0  0  0  0  0  0  0
   11.7708   44.1275  134.3958 C   0  0  0  0  0  0  0  0  0  0  0  0
    7.3307   48.2206  129.8935 C   0  0  0  0  0  0  0  0  0  0  0  0
    8.0204   49.3277  130.3131 C   0  0  0  0  0  0  0  0  0  0  0  0
    7.4537   50.5979  130.2586 C   0  0  0  0  0  0  0  0  0  0  0  0
    6.1772   50.7203  129.7716 C   0  0  0  0  0  0  0  0  0  0  0  0
    5.4535   49.6258  129.3412 C   0  0  0  0  0  0  0  0  0  0  0  0
    6.0295   48.3845  129.4033 C   0  0  0  0  0  0  0  0  0  0  0  0
    5.3017   47.3006  128.9719 F   0  0  0  0  0  0  0  0  0  0  0  0
  8  9  1  0  0  0
  9 10  2  0  0  0
 10 11  1  0  0  0
 11  1  1  0  0  0
  1  2  1  0  0  0
  2  3  1  0  0  0
  3  4  1  0  0  0
  4  5  1  0  0  0
  4  6  1  0  0  0
  6  7  1  0  0  0
  6 19  1  0  0  0
 19 20  2  0  0  0
 20 21  1  0  0  0
 21 22  2  0  0  0
 22 23  1  0  0  0
 23 24  2  0  0  0
 24 25  1  0  0  0
 11 12  2  0  0  0
 12 13  1  0  0  0
 13 14  2  0  0  0
 14 15  1  0  0  0
 15 16  2  0  0  0
 16 17  1  0  0  0
 17 18  2  0  0  0
 18  9  1  0  0  0
  7  1  1  0  0  0
 24 19  1  0  0  0
 17 12  1  0  0  0
M  END
> <minimizedAffinity>
-0.40931

> <CNNscore>
0.3497595489

> <CNNaffinity>
7.1101636887

> <CNN_VS>
2.4868476391

> <CNNaffinity_variance>
0.8644725084

$$$$
[H]c1c([H])c([H])c([C@@]2([H])N(C([H])([H])[H])C([H])([H])C([H])([H])N(c3c([H])c(C([H])([H])[H])c([H])c4c([H])c([H])c([H])c([H])c34)C2([H])[H])c(F)c1[H]


 25 28  0  0  0  0  0  0  0  0999 V2000
    9.4222   45.5386  131.0711 N   0  0  0  0  0  0  0  0  0  0  0  0
   10.5629   46.0765  130.4184 C   0  0  0  0  0  0  0  0  0  0  0  0
   10.3181   46.9034  129.2060 C   0  0  0  0  0  0  0  0  0  0  0  0
    9.0691   46.7014  128.5741 N   0  0  0  0  0  0  0  0  0  0  0  0
    9.0080   45.5684  127.6888 C   0  0  0  0  0  0  0  0  0  0  0  0
    7.9398   46.7413  129.4844 C   0  0  0  0  0  0  0  0  0  0  0  0
    8.0915   45.9948  130.7430 C   0  0  0  0  0  0  0  0  0  0  0  0
    7.3963   41.7175  133.3191 C   0  0  0  0  0  0  0  0  0  0  0  0
    8.5663   42.6587  133.2357 C   0  0  0  0  0  0  0  0  0  0  0  0
    8.5416   43.6130  132.2780 C   0  0  0  0  0  0  0  0  0  0  0  0
    9.5652   44.5570  132.0839 C   0  0  0  0  0  0  0  0  0  0  0  0
   10.6398   44.4629  132.9471 C   0  0  0  0  0  0  0  0  0  0  0  0
   11.6821   45.3314  132.8233 C   0  0  0  0  0  0  0  0  0  0  0  0
   12.7530   45.2248  133.6876 C   0  0  0  0  0  0  0  0  0  0  0  0
   12.8434   44.2813  134.6873 C   0  0  0  0  0  0  0  0  0  0  0  0
   11.7738   43.4165  134.7848 C   0  0  0  0  0  0  0  0  0  0  0  0
   10.6760   43.4822  133.9407 C   0  0  0  0  0  0  0  0  0  0  0  0
    9.6290   42.5812  134.0763 C   0  0  0  0  0  0  0  0  0  0  0  0
    7.3577   48.0994  129.6080 C   0  0  0  0  0  0  0  0  0  0  0  0
    8.0510   49.1879  130.0683 C   0  0  0  0  0  0  0  0  0  0  0  0
    7.4458   50.4360  130.1844 C   0  0  0  0  0  0  0  0  0  0  0  0
    6.1273   50.5555  129.8255 C   0  0  0  0  0  0  0  0  0  0  0  0
    5.3988   49.4792  129.3586 C   0  0  0  0  0  0  0  0  0  0  0  0
    6.0132   48.2595  129.2519 C   0  0  0  0  0  0  0  0  0  0  0  0
    5.2802   47.1938  128.7854 F   0  0  0  0  0  0  0  0  0  0  0  0
  8  9  1  0  0  0
  9 10  2  0  0  0
 10 11  1  0  0  0
 11  1  1  0  0  0
  1  2  1  0  0  0
  2  3  1  0  0  0
  3  4  1  0  0  0
  4  5  1  0  0  0
  4  6  1  0  0  0
  6  7  1  0  0  0
  6 19  1  0  0  0
 19 20  2  0  0  0
 20 21  1  0  0  0
 21 22  2  0  0  0
 22 23  1  0  0  0
 23 24  2  0  0  0
 24 25  1  0  0  0
 11 12  2  0  0  0
 12 13  1  0  0  0
 13 14  2  0  0  0
 14 15  1  0  0  0
 15 16  2  0  0  0
 16 17  1  0  0  0
 17 18  2  0  0  0
 18  9  1  0  0  0
  7  1  1  0  0  0
 24 19  1  0  0  0
 17 12  1  0  0  0
M  END
> <minimizedAffinity>
-1.19923

> <CNNscore>
0.3419801891

> <CNNaffinity>
7.0270929337

> <CNN_VS>
2.4031264782

> <CNNaffinity_variance>
0.7261055708

$$$$
[H]c1c([H])c([H])c([C@@]2([H])N(C([H])([H])[H])C([H])([H])C([H])([H])N(c3c([H])c(C([H])([H])[H])c([H])c4c([H])c([H])c([H])c([H])c34)C2([H])[H])c(F)c1[H]


 25 28  0  0  0  0  0  0  0  0999 V2000
    9.4395   47.5566  132.1594 N   0  0  0  0  0  0  0  0  0  0  0  0
   10.0741   48.5781  132.9146 C   0  0  0  0  0  0  0  0  0  0  0  0
   10.3523   48.2836  134.3462 C   0  0  0  0  0  0  0  0  0  0  0  0
    9.5772   47.2467  134.9156 N   0  0  0  0  0  0  0  0  0  0  0  0
    8.2641   47.6369  135.3569 C   0  0  0  0  0  0  0  0  0  0  0  0
    9.5447   46.0350  134.1179 C   0  0  0  0  0  0  0  0  0  0  0  0
    9.3235   46.2119  132.6742 C   0  0  0  0  0  0  0  0  0  0  0  0
    6.3560   50.2426  129.5068 C   0  0  0  0  0  0  0  0  0  0  0  0
    7.3812   49.1423  129.5211 C   0  0  0  0  0  0  0  0  0  0  0  0
    7.9555   48.8300  130.7048 C   0  0  0  0  0  0  0  0  0  0  0  0
    8.9276   47.8271  130.8653 C   0  0  0  0  0  0  0  0  0  0  0  0
    9.2853   47.1487  129.7162 C   0  0  0  0  0  0  0  0  0  0  0  0
   10.2286   46.1679  129.7784 C   0  0  0  0  0  0  0  0  0  0  0  0
   10.5822   45.5003  128.6231 C   0  0  0  0  0  0  0  0  0  0  0  0
   10.0367   45.7627  127.3857 C   0  0  0  0  0  0  0  0  0  0  0  0
    9.0869   46.7619  127.3563 C   0  0  0  0  0  0  0  0  0  0  0  0
    8.6982   47.4617  128.4882 C   0  0  0  0  0  0  0  0  0  0  0  0
    7.7431   48.4650  128.4021 C   0  0  0  0  0  0  0  0  0  0  0  0
   10.6148   45.0796  134.4926 C   0  0  0  0  0  0  0  0  0  0  0  0
   10.5628   44.2700  135.5967 C   0  0  0  0  0  0  0  0  0  0  0  0
   11.6086   43.4071  135.9120 C   0  0  0  0  0  0  0  0  0  0  0  0
   12.7041   43.3838  135.0868 C   0  0  0  0  0  0  0  0  0  0  0  0
   12.7896   44.1869  133.9666 C   0  0  0  0  0  0  0  0  0  0  0  0
   11.7496   45.0290  133.6740 C   0  0  0  0  0  0  0  0  0  0  0  0
   11.8433   45.8243  132.5563 F   0  0  0  0  0  0  0  0  0  0  0  0
  8  9  1  0  0  0
  9 10  2  0  0  0
 10 11  1  0  0  0
 11  1  1  0  0  0
  1  2  1  0  0  0
  2  3  1  0  0  0
  3  4  1  0  0  0
  4  5  1  0  0  0
  4  6  1  0  0  0
  6  7  1  0  0  0
  6 19  1  0  0  0
 19 20  2  0  0  0
 20 21  1  0  0  0
 21 22  2  0  0  0
 22 23  1  0  0  0
 23 24  2  0  0  0
 24 25  1  0  0  0
 11 12  2  0  0  0
 12 13  1  0  0  0
 13 14  2  0  0  0
 14 15  1  0  0  0
 15 16  2  0  0  0
 16 17  1  0  0  0
 17 18  2  0  0  0
 18  9  1  0  0  0
  7  1  1  0  0  0
 24 19  1  0  0  0
 17 12  1  0  0  0
M  END
> <minimizedAffinity>
3.05149

> <CNNscore>
0.3418489099

> <CNNaffinity>
6.9962415695

> <CNN_VS>
2.3916575909

> <CNNaffinity_variance>
0.8571901321

$$$$
[H]c1c2c(c3c(nnn3[H])c1[H])C([H])([H])C1(C([H])([H])C([H])([H])C([H])([H])C([H])([H])[H])C2=C(Br)C(=O)C([H])([H])C1([H])[H]


 23 26  0  0  0  0  0  0  0  0999 V2000
   10.6766   46.0310  132.4429 C   0  0  0  0  0  0  0  0  0  0  0  0
   10.0163   47.3688  132.5864 C   0  0  0  0  0  0  0  0  0  0  0  0
    9.0108   47.3914  131.4706 C   0  0  0  0  0  0  0  0  0  0  0  0
    8.7439   46.0884  131.1216 C   0  0  0  0  0  0  0  0  0  0  0  0
    7.8355   45.7993  130.0961 C   0  0  0  0  0  0  0  0  0  0  0  0
    7.2225   46.8787  129.4546 C   0  0  0  0  0  0  0  0  0  0  0  0
    7.4960   48.1839  129.8114 C   0  0  0  0  0  0  0  0  0  0  0  0
    7.0449   49.3481  129.3540 N   0  0  0  0  0  0  0  0  0  0  0  0
    7.6369   50.3179  130.0530 N   0  0  0  0  0  0  0  0  0  0  0  0
    8.4510   49.7802  130.9402 N   0  0  0  0  0  0  0  0  0  0  0  0
    8.4098   48.4447  130.8414 C   0  0  0  0  0  0  0  0  0  0  0  0
    9.5194   45.1812  131.9525 C   0  0  0  0  0  0  0  0  0  0  0  0
    9.3835   43.9112  132.2860 C   0  0  0  0  0  0  0  0  0  0  0  0
    7.9074   42.8581  131.6520 Br  0  0  0  0  0  0  0  0  0  0  0  0
   10.3490   43.2429  133.1472 C   0  0  0  0  0  0  0  0  0  0  0  0
   10.2743   42.0077  133.3648 O   0  0  0  0  0  0  0  0  0  0  0  0
   11.4231   44.0652  133.7592 C   0  0  0  0  0  0  0  0  0  0  0  0
   10.9358   45.4846  133.8433 C   0  0  0  0  0  0  0  0  0  0  0  0
    9.0301   50.3434  131.6088 H   0  0  0  0  0  0  0  0  0  0  0  0
   11.8084   45.9113  131.5356 C   0  0  0  0  0  0  0  0  0  0  0  0
   12.0210   44.8548  130.5741 C   0  0  0  0  0  0  0  0  0  0  0  0
   10.6849   43.9619  128.6852 C   0  0  0  0  0  0  0  0  0  0  0  0
   11.7212   45.0428  129.1226 C   0  0  0  0  0  0  0  0  0  0  0  0
 22 23  1  0  0  0
 23 21  1  0  0  0
 21 20  1  0  0  0
 20  1  1  0  0  0
  1  2  1  0  0  0
  2  3  1  0  0  0
  3  4  2  0  0  0
  4  5  1  0  0  0
  5  6  2  0  0  0
  6  7  1  0  0  0
  7  8  1  0  0  0
  8  9  2  0  0  0
  9 10  1  0  0  0
 10 11  1  0  0  0
  4 12  1  0  0  0
 12 13  2  0  0  0
 13 14  1  0  0  0
 13 15  1  0  0  0
 15 16  2  0  0  0
 15 17  1  0  0  0
 17 18  1  0  0  0
 12  1  1  0  0  0
 18  1  1  0  0  0
 11  3  1  0  0  0
 11  7  2  0  0  0
 10 19  1  0  0  0
M  END
> <minimizedAffinity>
-8.01056

> <CNNscore>
0.8131771684

> <CNNaffinity>
7.9351530075

> <CNN_VS>
6.4526853561

> <CNNaffinity_variance>
0.1682730019

$$$$
[H]c1c2c(c3c(nnn3[H])c1[H])C([H])([H])C1(C([H])([H])C([H])([H])C([H])([H])C([H])([H])[H])C2=C(Br)C(=O)C([H])([H])C1([H])[H]


 23 26  0  0  0  0  0  0  0  0999 V2000
    8.7814   44.5214  132.3959 C   0  0  0  0  0  0  0  0  0  0  0  0
    7.5503   44.6828  131.5565 C   0  0  0  0  0  0  0  0  0  0  0  0
    7.9178   45.7731  130.5908 C   0  0  0  0  0  0  0  0  0  0  0  0
    9.2900   45.8182  130.5133 C   0  0  0  0  0  0  0  0  0  0  0  0
    9.9246   46.7503  129.6833 C   0  0  0  0  0  0  0  0  0  0  0  0
    9.1120   47.6180  128.9491 C   0  0  0  0  0  0  0  0  0  0  0  0
    7.7351   47.5659  129.0326 C   0  0  0  0  0  0  0  0  0  0  0  0
    6.7771   48.2737  128.4417 N   0  0  0  0  0  0  0  0  0  0  0  0
    5.6029   47.8130  128.8758 N   0  0  0  0  0  0  0  0  0  0  0  0
    5.8099   46.8287  129.7286 N   0  0  0  0  0  0  0  0  0  0  0  0
    7.1260   46.6230  129.8716 C   0  0  0  0  0  0  0  0  0  0  0  0
    9.8715   44.8051  131.3796 C   0  0  0  0  0  0  0  0  0  0  0  0
   11.0407   44.1930  131.4071 C   0  0  0  0  0  0  0  0  0  0  0  0
   12.4034   44.5701  130.1066 Br  0  0  0  0  0  0  0  0  0  0  0  0
   11.3586   43.2047  132.4282 C   0  0  0  0  0  0  0  0  0  0  0  0
   12.5118   42.7134  132.5151 O   0  0  0  0  0  0  0  0  0  0  0  0
   10.2794   42.7961  133.3624 C   0  0  0  0  0  0  0  0  0  0  0  0
    8.9588   43.0342  132.6851 C   0  0  0  0  0  0  0  0  0  0  0  0
    5.0365   46.3057  130.2060 H   0  0  0  0  0  0  0  0  0  0  0  0
    8.9433   45.3802  133.5599 C   0  0  0  0  0  0  0  0  0  0  0  0
    9.7011   46.6085  133.6132 C   0  0  0  0  0  0  0  0  0  0  0  0
    9.9735   48.8889  132.6774 C   0  0  0  0  0  0  0  0  0  0  0  0
    9.0408   47.9435  133.4958 C   0  0  0  0  0  0  0  0  0  0  0  0
 22 23  1  0  0  0
 23 21  1  0  0  0
 21 20  1  0  0  0
 20  1  1  0  0  0
  1  2  1  0  0  0
  2  3  1  0  0  0
  3  4  2  0  0  0
  4  5  1  0  0  0
  5  6  2  0  0  0
  6  7  1  0  0  0
  7  8  1  0  0  0
  8  9  2  0  0  0
  9 10  1  0  0  0
 10 11  1  0  0  0
  4 12  1  0  0  0
 12 13  2  0  0  0
 13 14  1  0  0  0
 13 15  1  0  0  0
 15 16  2  0  0  0
 15 17  1  0  0  0
 17 18  1  0  0  0
 12  1  1  0  0  0
 18  1  1  0  0  0
 11  3  1  0  0  0
 11  7  2  0  0  0
 10 19  1  0  0  0
M  END
> <minimizedAffinity>
-8.49407

> <CNNscore>
0.8064332604

> <CNNaffinity>
7.7917451859

> <CNN_VS>
6.2835226059

> <CNNaffinity_variance>
0.0598580614

$$$$
[H]c1c2c(c3c(nnn3[H])c1[H])C([H])([H])C1(C([H])([H])C([H])([H])C([H])([H])C([H])([H])[H])C2=C(Br)C(=O)C([H])([H])C1([H])[H]


 23 26  0  0  0  0  0  0  0  0999 V2000
    8.4337   44.8256  130.9214 C   0  0  0  0  0  0  0  0  0  0  0  0
    7.8038   45.7864  129.9590 C   0  0  0  0  0  0  0  0  0  0  0  0
    8.3216   47.1252  130.4018 C   0  0  0  0  0  0  0  0  0  0  0  0
    9.4806   46.9119  131.1104 C   0  0  0  0  0  0  0  0  0  0  0  0
   10.1896   47.9898  131.6542 C   0  0  0  0  0  0  0  0  0  0  0  0
    9.6734   49.2715  131.4463 C   0  0  0  0  0  0  0  0  0  0  0  0
    8.5092   49.4768  130.7335 C   0  0  0  0  0  0  0  0  0  0  0  0
    7.8407   50.5809  130.4137 N   0  0  0  0  0  0  0  0  0  0  0  0
    6.7688   50.2184  129.7073 N   0  0  0  0  0  0  0  0  0  0  0  0
    6.7551   48.9060  129.5795 N   0  0  0  0  0  0  0  0  0  0  0  0
    7.8194   48.3797  130.2003 C   0  0  0  0  0  0  0  0  0  0  0  0
    9.7760   45.4890  131.1657 C   0  0  0  0  0  0  0  0  0  0  0  0
   10.8801   44.7959  131.3733 C   0  0  0  0  0  0  0  0  0  0  0  0
   12.5676   45.6615  131.6787 Br  0  0  0  0  0  0  0  0  0  0  0  0
   10.8735   43.3398  131.3869 C   0  0  0  0  0  0  0  0  0  0  0  0
   11.9038   42.6919  131.6990 O   0  0  0  0  0  0  0  0  0  0  0  0
    9.6132   42.6454  131.0211 C   0  0  0  0  0  0  0  0  0  0  0  0
    8.8081   43.5657  130.1471 C   0  0  0  0  0  0  0  0  0  0  0  0
    6.0074   48.3836  129.0622 H   0  0  0  0  0  0  0  0  0  0  0  0
    7.7606   44.5716  132.1867 C   0  0  0  0  0  0  0  0  0  0  0  0
    8.3397   44.7110  133.5024 C   0  0  0  0  0  0  0  0  0  0  0  0
    9.5514   46.3845  134.8742 C   0  0  0  0  0  0  0  0  0  0  0  0
    8.1617   45.9552  134.3102 C   0  0  0  0  0  0  0  0  0  0  0  0
 22 23  1  0  0  0
 23 21  1  0  0  0
 21 20  1  0  0  0
 20  1  1  0  0  0
  1  2  1  0  0  0
  2  3  1  0  0  0
  3  4  2  0  0  0
  4  5  1  0  0  0
  5  6  2  0  0  0
  6  7  1  0  0  0
  7  8  1  0  0  0
  8  9  2  0  0  0
  9 10  1  0  0  0
 10 11  1  0  0  0
  4 12  1  0  0  0
 12 13  2  0  0  0
 13 14  1  0  0  0
 13 15  1  0  0  0
 15 16  2  0  0  0
 15 17  1  0  0  0
 17 18  1  0  0  0
 12  1  1  0  0  0
 18  1  1  0  0  0
 11  3  1  0  0  0
 11  7  2  0  0  0
 10 19  1  0  0  0
M  END
> <minimizedAffinity>
-7.87025

> <CNNscore>
0.7796542048

> <CNNaffinity>
7.8585062027

> <CNN_VS>
6.1269173622

> <CNNaffinity_variance>
0.1493743509

$$$$
[H]c1c2c(c3c(nnn3[H])c1[H])C([H])([H])C1(C([H])([H])C([H])([H])C([H])([H])C([H])([H])[H])C2=C(Br)C(=O)C([H])([H])C1([H])[H]


 23 26  0  0  0  0  0  0  0  0999 V2000
    9.5381   48.1189  131.6198 C   0  0  0  0  0  0  0  0  0  0  0  0
   10.6986   47.2092  131.3518 C   0  0  0  0  0  0  0  0  0  0  0  0
   10.0551   45.8754  131.0998 C   0  0  0  0  0  0  0  0  0  0  0  0
    8.7533   46.1041  130.7203 C   0  0  0  0  0  0  0  0  0  0  0  0
    7.9018   45.0336  130.4213 C   0  0  0  0  0  0  0  0  0  0  0  0
    8.4280   43.7432  130.5245 C   0  0  0  0  0  0  0  0  0  0  0  0
    9.7361   43.5225  130.9060 C   0  0  0  0  0  0  0  0  0  0  0  0
   10.4426   42.4081  131.0703 N   0  0  0  0  0  0  0  0  0  0  0  0
   11.6721   42.7573  131.4523 N   0  0  0  0  0  0  0  0  0  0  0  0
   11.7470   44.0716  131.5298 N   0  0  0  0  0  0  0  0  0  0  0  0
   10.5665   44.6125  131.1998 C   0  0  0  0  0  0  0  0  0  0  0  0
    8.4843   47.5331  130.6989 C   0  0  0  0  0  0  0  0  0  0  0  0
    7.5840   48.2809  130.0882 C   0  0  0  0  0  0  0  0  0  0  0  0
    6.2613   47.5132  128.9258 Br  0  0  0  0  0  0  0  0  0  0  0  0
    7.5448   49.7252  130.2694 C   0  0  0  0  0  0  0  0  0  0  0  0
    6.6158   50.4132  129.7769 O   0  0  0  0  0  0  0  0  0  0  0  0
    8.6350   50.3590  131.0530 C   0  0  0  0  0  0  0  0  0  0  0  0
    9.8439   49.4688  130.9785 C   0  0  0  0  0  0  0  0  0  0  0  0
   12.6169   44.5851  131.8112 H   0  0  0  0  0  0  0  0  0  0  0  0
    9.0258   48.2055  132.9795 C   0  0  0  0  0  0  0  0  0  0  0  0
    9.6899   47.7323  134.1715 C   0  0  0  0  0  0  0  0  0  0  0  0
    8.1756   45.7692  134.2288 C   0  0  0  0  0  0  0  0  0  0  0  0
    9.5875   46.3091  134.6142 C   0  0  0  0  0  0  0  0  0  0  0  0
 22 23  1  0  0  0
 23 21  1  0  0  0
 21 20  1  0  0  0
 20  1  1  0  0  0
  1  2  1  0  0  0
  2  3  1  0  0  0
  3  4  2  0  0  0
  4  5  1  0  0  0
  5  6  2  0  0  0
  6  7  1  0  0  0
  7  8  1  0  0  0
  8  9  2  0  0  0
  9 10  1  0  0  0
 10 11  1  0  0  0
  4 12  1  0  0  0
 12 13  2  0  0  0
 13 14  1  0  0  0
 13 15  1  0  0  0
 15 16  2  0  0  0
 15 17  1  0  0  0
 17 18  1  0  0  0
 12  1  1  0  0  0
 18  1  1  0  0  0
 11  3  1  0  0  0
 11  7  2  0  0  0
 10 19  1  0  0  0
M  END
> <minimizedAffinity>
-8.80793

> <CNNscore>
0.5866906643

> <CNNaffinity>
7.5623550415

> <CNN_VS>
4.4367632866

> <CNNaffinity_variance>
0.1138075814

$$$$
[H]c1c2c(c3c(nnn3[H])c1[H])C([H])([H])C1(C([H])([H])C([H])([H])C([H])([H])C([H])([H])[H])C2=C(Br)C(=O)C([H])([H])C1([H])[H]


 23 26  0  0  0  0  0  0  0  0999 V2000
    8.0180   46.2531  129.9023 C   0  0  0  0  0  0  0  0  0  0  0  0
    7.8131   45.1782  130.9264 C   0  0  0  0  0  0  0  0  0  0  0  0
    9.0031   45.3176  131.8325 C   0  0  0  0  0  0  0  0  0  0  0  0
    9.4869   46.5973  131.6934 C   0  0  0  0  0  0  0  0  0  0  0  0
   10.6067   47.0166  132.4219 C   0  0  0  0  0  0  0  0  0  0  0  0
   11.1997   46.0896  133.2830 C   0  0  0  0  0  0  0  0  0  0  0  0
   10.7074   44.8069  133.4167 C   0  0  0  0  0  0  0  0  0  0  0  0
   11.0966   43.7736  134.1576 N   0  0  0  0  0  0  0  0  0  0  0  0
   10.2675   42.7585  133.9093 N   0  0  0  0  0  0  0  0  0  0  0  0
    9.3660   43.1390  133.0255 N   0  0  0  0  0  0  0  0  0  0  0  0
    9.5852   44.4135  132.6752 C   0  0  0  0  0  0  0  0  0  0  0  0
    8.6771   47.3350  130.7370 C   0  0  0  0  0  0  0  0  0  0  0  0
    8.4695   48.6205  130.5201 C   0  0  0  0  0  0  0  0  0  0  0  0
    9.3158   49.9702  131.5934 Br  0  0  0  0  0  0  0  0  0  0  0  0
    7.5925   49.0803  129.4525 C   0  0  0  0  0  0  0  0  0  0  0  0
    7.4918   50.3029  129.1806 O   0  0  0  0  0  0  0  0  0  0  0  0
    6.8222   48.0612  128.6960 C   0  0  0  0  0  0  0  0  0  0  0  0
    6.6545   46.8534  129.5748 C   0  0  0  0  0  0  0  0  0  0  0  0
    8.6039   42.5120  132.6708 H   0  0  0  0  0  0  0  0  0  0  0  0
    8.8340   45.9511  128.7354 C   0  0  0  0  0  0  0  0  0  0  0  0
   10.2761   45.8810  128.6997 C   0  0  0  0  0  0  0  0  0  0  0  0
   12.0586   44.5608  129.8089 C   0  0  0  0  0  0  0  0  0  0  0  0
   10.9975   44.5731  128.6655 C   0  0  0  0  0  0  0  0  0  0  0  0
 22 23  1  0  0  0
 23 21  1  0  0  0
 21 20  1  0  0  0
 20  1  1  0  0  0
  1  2  1  0  0  0
  2  3  1  0  0  0
  3  4  2  0  0  0
  4  5  1  0  0  0
  5  6  2  0  0  0
  6  7  1  0  0  0
  7  8  1  0  0  0
  8  9  2  0  0  0
  9 10  1  0  0  0
 10 11  1  0  0  0
  4 12  1  0  0  0
 12 13  2  0  0  0
 13 14  1  0  0  0
 13 15  1  0  0  0
 15 16  2  0  0  0
 15 17  1  0  0  0
 17 18  1  0  0  0
 12  1  1  0  0  0
 18  1  1  0  0  0
 11  3  1  0  0  0
 11  7  2  0  0  0
 10 19  1  0  0  0
M  END
> <minimizedAffinity>
-9.06265

> <CNNscore>
0.4552888572

> <CNNaffinity>
7.4597330093

> <CNN_VS>
3.3963332176

> <CNNaffinity_variance>
0.1377452314

$$$$
[H]c1c2c(c3c(nnn3[H])c1[H])C([H])([H])C1(C([H])([H])C([H])([H])C([H])([H])C([H])([H])[H])C2=C(Br)C(=O)C([H])([H])C1([H])[H]


 23 26  0  0  0  0  0  0  0  0999 V2000
    9.5945   45.1662  130.3637 C   0  0  0  0  0  0  0  0  0  0  0  0
    9.9483   46.5688  129.9715 C   0  0  0  0  0  0  0  0  0  0  0  0
    9.9447   47.3151  131.2751 C   0  0  0  0  0  0  0  0  0  0  0  0
   10.1286   46.3976  132.2828 C   0  0  0  0  0  0  0  0  0  0  0  0
   10.1658   46.8092  133.6205 C   0  0  0  0  0  0  0  0  0  0  0  0
   10.0103   48.1735  133.8797 C   0  0  0  0  0  0  0  0  0  0  0  0
    9.8263   49.0879  132.8621 C   0  0  0  0  0  0  0  0  0  0  0  0
    9.6596   50.4071  132.8662 N   0  0  0  0  0  0  0  0  0  0  0  0
    9.5244   50.8049  131.6001 N   0  0  0  0  0  0  0  0  0  0  0  0
    9.6037   49.7569  130.8037 N   0  0  0  0  0  0  0  0  0  0  0  0
    9.7929   48.6483  131.5318 C   0  0  0  0  0  0  0  0  0  0  0  0
   10.2611   45.0621  131.7225 C   0  0  0  0  0  0  0  0  0  0  0  0
   10.7939   43.9382  132.1647 C   0  0  0  0  0  0  0  0  0  0  0  0
   11.6335   43.8343  133.8893 Br  0  0  0  0  0  0  0  0  0  0  0  0
   10.7671   42.7187  131.3694 C   0  0  0  0  0  0  0  0  0  0  0  0
   11.1727   41.6284  131.8444 O   0  0  0  0  0  0  0  0  0  0  0  0
   10.2463   42.8032  129.9816 C   0  0  0  0  0  0  0  0  0  0  0  0
   10.4203   44.2168  129.5014 C   0  0  0  0  0  0  0  0  0  0  0  0
    9.5262   49.8174  129.7597 H   0  0  0  0  0  0  0  0  0  0  0  0
    8.1869   44.8098  130.4654 C   0  0  0  0  0  0  0  0  0  0  0  0
    7.0789   45.7322  130.5509 C   0  0  0  0  0  0  0  0  0  0  0  0
    5.3438   47.1303  129.4622 C   0  0  0  0  0  0  0  0  0  0  0  0
    6.8673   46.8012  129.5289 C   0  0  0  0  0  0  0  0  0  0  0  0
 22 23  1  0  0  0
 23 21  1  0  0  0
 21 20  1  0  0  0
 20  1  1  0  0  0
  1  2  1  0  0  0
  2  3  1  0  0  0
  3  4  2  0  0  0
  4  5  1  0  0  0
  5  6  2  0  0  0
  6  7  1  0  0  0
  7  8  1  0  0  0
  8  9  2  0  0  0
  9 10  1  0  0  0
 10 11  1  0  0  0
  4 12  1  0  0  0
 12 13  2  0  0  0
 13 14  1  0  0  0
 13 15  1  0  0  0
 15 16  2  0  0  0
 15 17  1  0  0  0
 17 18  1  0  0  0
 12  1  1  0  0  0
 18  1  1  0  0  0
 11  3  1  0  0  0
 11  7  2  0  0  0
 10 19  1  0  0  0
M  END
> <minimizedAffinity>
-7.24310

> <CNNscore>
0.4206891656

> <CNNaffinity>
7.3979706764

> <CNN_VS>
3.1122460365

> <CNNaffinity_variance>
0.1645517647

$$$$
[H]c1c2c(c3c(nnn3[H])c1[H])C([H])([H])C1(C([H])([H])C([H])([H])C([H])([H])C([H])([H])[H])C2=C(Br)C(=O)C([H])([H])C1([H])[H]


 23 26  0  0  0  0  0  0  0  0999 V2000
    9.8361   45.5841  129.3960 C   0  0  0  0  0  0  0  0  0  0  0  0
    9.5416   46.8672  128.6797 C   0  0  0  0  0  0  0  0  0  0  0  0
    8.9826   47.7553  129.7545 C   0  0  0  0  0  0  0  0  0  0  0  0
    9.4184   47.2712  130.9656 C   0  0  0  0  0  0  0  0  0  0  0  0
    9.0475   47.9034  132.1586 C   0  0  0  0  0  0  0  0  0  0  0  0
    8.2277   49.0310  132.0627 C   0  0  0  0  0  0  0  0  0  0  0  0
    7.7949   49.5105  130.8427 C   0  0  0  0  0  0  0  0  0  0  0  0
    7.0265   50.5436  130.5109 N   0  0  0  0  0  0  0  0  0  0  0  0
    6.9188   50.5613  129.1813 N   0  0  0  0  0  0  0  0  0  0  0  0
    7.6069   49.5565  128.6755 N   0  0  0  0  0  0  0  0  0  0  0  0
    8.1811   48.8580  129.6642 C   0  0  0  0  0  0  0  0  0  0  0  0
   10.2515   46.0968  130.7621 C   0  0  0  0  0  0  0  0  0  0  0  0
   11.1756   45.4989  131.4909 C   0  0  0  0  0  0  0  0  0  0  0  0
   11.6840   46.1703  133.2174 Br  0  0  0  0  0  0  0  0  0  0  0  0
   11.8526   44.2968  131.0249 C   0  0  0  0  0  0  0  0  0  0  0  0
   12.6453   43.6708  131.7723 O   0  0  0  0  0  0  0  0  0  0  0  0
   11.5773   43.8341  129.6413 C   0  0  0  0  0  0  0  0  0  0  0  0
   11.1355   45.0199  128.8302 C   0  0  0  0  0  0  0  0  0  0  0  0
    7.6739   49.3618  127.6473 H   0  0  0  0  0  0  0  0  0  0  0  0
    8.7675   44.6049  129.5300 C   0  0  0  0  0  0  0  0  0  0  0  0
    8.1321   44.2011  130.7624 C   0  0  0  0  0  0  0  0  0  0  0  0
    8.8196   43.1547  132.9032 C   0  0  0  0  0  0  0  0  0  0  0  0
    8.4418   42.8921  131.4126 C   0  0  0  0  0  0  0  0  0  0  0  0
 22 23  1  0  0  0
 23 21  1  0  0  0
 21 20  1  0  0  0
 20  1  1  0  0  0
  1  2  1  0  0  0
  2  3  1  0  0  0
  3  4  2  0  0  0
  4  5  1  0  0  0
  5  6  2  0  0  0
  6  7  1  0  0  0
  7  8  1  0  0  0
  8  9  2  0  0  0
  9 10  1  0  0  0
 10 11  1  0  0  0
  4 12  1  0  0  0
 12 13  2  0  0  0
 13 14  1  0  0  0
 13 15  1  0  0  0
 15 16  2  0  0  0
 15 17  1  0  0  0
 17 18  1  0  0  0
 12  1  1  0  0  0
 18  1  1  0  0  0
 11  3  1  0  0  0
 11  7  2  0  0  0
 10 19  1  0  0  0
M  END
> <minimizedAffinity>
-8.24272

> <CNNscore>
0.4043698609

> <CNNaffinity>
7.3474655151

> <CNN_VS>
2.9710936546

> <CNNaffinity_variance>
0.0667543784

$$$$
[H]c1c2c(c3c(nnn3[H])c1[H])C([H])([H])C1(C([H])([H])C([H])([H])C([H])([H])C([H])([H])[H])C2=C(Br)C(=O)C([H])([H])C1([H])[H]


 23 26  0  0  0  0  0  0  0  0999 V2000
    9.8504   47.0492  129.9125 C   0  0  0  0  0  0  0  0  0  0  0  0
   10.5780   45.7646  129.6548 C   0  0  0  0  0  0  0  0  0  0  0  0
   10.0595   44.8413  130.7203 C   0  0  0  0  0  0  0  0  0  0  0  0
    8.8430   45.3270  131.1388 C   0  0  0  0  0  0  0  0  0  0  0  0
    8.1196   44.6655  132.1385 C   0  0  0  0  0  0  0  0  0  0  0  0
    8.6819   43.5074  132.6819 C   0  0  0  0  0  0  0  0  0  0  0  0
    9.9037   43.0265  132.2558 C   0  0  0  0  0  0  0  0  0  0  0  0
   10.6222   41.9678  132.6176 N   0  0  0  0  0  0  0  0  0  0  0  0
   11.7377   41.9627  131.8860 N   0  0  0  0  0  0  0  0  0  0  0  0
   11.7294   43.0005  131.0724 N   0  0  0  0  0  0  0  0  0  0  0  0
   10.6067   43.7088  131.2536 C   0  0  0  0  0  0  0  0  0  0  0  0
    8.5095   46.5363  130.4030 C   0  0  0  0  0  0  0  0  0  0  0  0
    7.3758   47.1613  130.1449 C   0  0  0  0  0  0  0  0  0  0  0  0
    5.6910   46.4889  130.7770 Br  0  0  0  0  0  0  0  0  0  0  0  0
    7.3458   48.3953  129.3723 C   0  0  0  0  0  0  0  0  0  0  0  0
    6.2784   49.0428  129.2303 O   0  0  0  0  0  0  0  0  0  0  0  0
    8.6137   48.8641  128.7586 C   0  0  0  0  0  0  0  0  0  0  0  0
    9.5081   47.6719  128.5628 C   0  0  0  0  0  0  0  0  0  0  0  0
   12.5029   43.2108  130.3963 H   0  0  0  0  0  0  0  0  0  0  0  0
   10.4145   47.9832  130.8759 C   0  0  0  0  0  0  0  0  0  0  0  0
    9.9259   49.3123  131.1601 C   0  0  0  0  0  0  0  0  0  0  0  0
    9.0561   48.3797  133.2871 C   0  0  0  0  0  0  0  0  0  0  0  0
    9.4092   49.6861  132.5111 C   0  0  0  0  0  0  0  0  0  0  0  0
 22 23  1  0  0  0
 23 21  1  0  0  0
 21 20  1  0  0  0
 20  1  1  0  0  0
  1  2  1  0  0  0
  2  3  1  0  0  0
  3  4  2  0  0  0
  4  5  1  0  0  0
  5  6  2  0  0  0
  6  7  1  0  0  0
  7  8  1  0  0  0
  8  9  2  0  0  0
  9 10  1  0  0  0
 10 11  1  0  0  0
  4 12  1  0  0  0
 12 13  2  0  0  0
 13 14  1  0  0  0
 13 15  1  0  0  0
 15 16  2  0  0  0
 15 17  1  0  0  0
 17 18  1  0  0  0
 12  1  1  0  0  0
 18  1  1  0  0  0
 11  3  1  0  0  0
 11  7  2  0  0  0
 10 19  1  0  0  0
M  END
> <minimizedAffinity>
-2.50500

> <CNNscore>
0.3122765124

> <CNNaffinity>
6.9602684975

> <CNN_VS>
2.1735284328

> <CNNaffinity_variance>
0.2445407361

$$$$
[H]c1c2c(c3c(nnn3[H])c1[H])C([H])([H])C1(C([H])([H])C([H])([H])C([H])([H])C([H])([H])[H])C2=C(Br)C(=O)C([H])([H])C1([H])[H]


 23 26  0  0  0  0  0  0  0  0999 V2000
    9.1922   47.4122  132.0520 C   0  0  0  0  0  0  0  0  0  0  0  0
   10.4202   47.1439  132.8681 C   0  0  0  0  0  0  0  0  0  0  0  0
   10.9501   45.8572  132.3023 C   0  0  0  0  0  0  0  0  0  0  0  0
   10.4512   45.7240  131.0278 C   0  0  0  0  0  0  0  0  0  0  0  0
   10.7772   44.6061  130.2503 C   0  0  0  0  0  0  0  0  0  0  0  0
   11.6196   43.6480  130.8204 C   0  0  0  0  0  0  0  0  0  0  0  0
   12.1161   43.7896  132.1005 C   0  0  0  0  0  0  0  0  0  0  0  0
   12.9167   43.0253  132.8376 N   0  0  0  0  0  0  0  0  0  0  0  0
   13.0857   43.6286  134.0153 N   0  0  0  0  0  0  0  0  0  0  0  0
   12.4044   44.7576  134.0277 N   0  0  0  0  0  0  0  0  0  0  0  0
   11.7735   44.9185  132.8568 C   0  0  0  0  0  0  0  0  0  0  0  0
    9.6097   46.8640  130.7005 C   0  0  0  0  0  0  0  0  0  0  0  0
    9.2117   47.4052  129.5641 C   0  0  0  0  0  0  0  0  0  0  0  0
    9.7568   46.6917  127.8659 Br  0  0  0  0  0  0  0  0  0  0  0  0
    8.3348   48.5675  129.5407 C   0  0  0  0  0  0  0  0  0  0  0  0
    7.8695   49.0041  128.4582 O   0  0  0  0  0  0  0  0  0  0  0  0
    8.0078   49.2198  130.8337 C   0  0  0  0  0  0  0  0  0  0  0  0
    9.1140   48.9154  131.8047 C   0  0  0  0  0  0  0  0  0  0  0  0
   12.3815   45.4096  134.8488 H   0  0  0  0  0  0  0  0  0  0  0  0
    7.9358   46.8095  132.4729 C   0  0  0  0  0  0  0  0  0  0  0  0
    7.6207   45.4002  132.4592 C   0  0  0  0  0  0  0  0  0  0  0  0
    8.5031   43.1098  132.8141 C   0  0  0  0  0  0  0  0  0  0  0  0
    8.1522   44.4672  133.4981 C   0  0  0  0  0  0  0  0  0  0  0  0
 22 23  1  0  0  0
 23 21  1  0  0  0
 21 20  1  0  0  0
 20  1  1  0  0  0
  1  2  1  0  0  0
  2  3  1  0  0  0
  3  4  2  0  0  0
  4  5  1  0  0  0
  5  6  2  0  0  0
  6  7  1  0  0  0
  7  8  1  0  0  0
  8  9  2  0  0  0
  9 10  1  0  0  0
 10 11  1  0  0  0
  4 12  1  0  0  0
 12 13  2  0  0  0
 13 14  1  0  0  0
 13 15  1  0  0  0
 15 16  2  0  0  0
 15 17  1  0  0  0
 17 18  1  0  0  0
 12  1  1  0  0  0
 18  1  1  0  0  0
 11  3  1  0  0  0
 11  7  2  0  0  0
 10 19  1  0  0  0
M  END
> <minimizedAffinity>
-4.86486

> <CNNscore>
0.1635947376

> <CNNaffinity>
7.0037140846

> <CNN_VS>
1.1457707882

> <CNNaffinity_variance>
0.1985260546

$$$$
[H]Oc1c([H])c([H])c(-n2nc([H])c3c(F)c([H])c(O[H])c(C#N)c32)c([H])c1[H]


 22 24  0  0  0  0  0  0  0  0999 V2000
    8.9803   45.3305  130.1316 N   0  0  0  0  0  0  0  0  0  0  0  0
    9.1055   44.4096  129.1815 N   0  0  0  0  0  0  0  0  0  0  0  0
    9.7530   43.3363  129.6331 C   0  0  0  0  0  0  0  0  0  0  0  0
   10.0695   43.5672  130.9523 C   0  0  0  0  0  0  0  0  0  0  0  0
   10.7156   42.8695  131.9454 C   0  0  0  0  0  0  0  0  0  0  0  0
   11.1997   41.6426  131.6652 F   0  0  0  0  0  0  0  0  0  0  0  0
   10.8864   43.3679  133.2010 C   0  0  0  0  0  0  0  0  0  0  0  0
   10.3901   44.6212  133.4817 C   0  0  0  0  0  0  0  0  0  0  0  0
   10.5259   45.2005  134.7459 O   0  0  0  0  0  0  0  0  0  0  0  0
    9.7262   45.3590  132.4911 C   0  0  0  0  0  0  0  0  0  0  0  0
    9.5626   44.8390  131.2264 C   0  0  0  0  0  0  0  0  0  0  0  0
   10.9841   44.7352  135.4929 H   0  0  0  0  0  0  0  0  0  0  0  0
    6.1983   50.0803  129.1424 O   0  0  0  0  0  0  0  0  0  0  0  0
    6.9095   48.8950  129.3940 C   0  0  0  0  0  0  0  0  0  0  0  0
    8.2878   48.8896  129.4306 C   0  0  0  0  0  0  0  0  0  0  0  0
    8.9918   47.7406  129.6749 C   0  0  0  0  0  0  0  0  0  0  0  0
    8.3243   46.5653  129.8889 C   0  0  0  0  0  0  0  0  0  0  0  0
    6.9480   46.5825  129.8499 C   0  0  0  0  0  0  0  0  0  0  0  0
    6.2208   47.7183  129.6078 C   0  0  0  0  0  0  0  0  0  0  0  0
    5.9745   50.3197  128.1876 H   0  0  0  0  0  0  0  0  0  0  0  0
    9.2267   46.6727  132.8493 C   0  0  0  0  0  0  0  0  0  0  0  0
    8.8405   47.7405  133.1649 N   0  0  0  0  0  0  0  0  0  0  0  0
 13 14  1  0  0  0
 14 15  2  0  0  0
 15 16  1  0  0  0
 16 17  2  0  0  0
 17 18  1  0  0  0
 18 19  2  0  0  0
 17  1  1  0  0  0
  1  2  1  0  0  0
  2  3  2  0  0  0
  3  4  1  0  0  0
  4  5  2  0  0  0
  5  6  1  0  0  0
  5  7  1  0  0  0
  7  8  2  0  0  0
  8  9  1  0  0  0
  8 10  1  0  0  0
 10 21  1  0  0  0
 21 22  3  0  0  0
 10 11  2  0  0  0
 19 14  1  0  0  0
 11  1  1  0  0  0
 11  4  1  0  0  0
 13 20  1  0  0  0
  9 12  1  0  0  0
M  END
> <minimizedAffinity>
-8.30573

> <CNNscore>
0.7474255562

> <CNNaffinity>
7.1940879822

> <CNN_VS>
5.3770451546

> <CNNaffinity_variance>
0.3541826904

$$$$
[H]Oc1c([H])c([H])c(-n2nc([H])c3c(F)c([H])c(O[H])c(C#N)c32)c([H])c1[H]


 22 24  0  0  0  0  0  0  0  0999 V2000
    9.3126   46.8939  132.5616 N   0  0  0  0  0  0  0  0  0  0  0  0
    9.0510   47.0413  133.8563 N   0  0  0  0  0  0  0  0  0  0  0  0
    9.6528   46.0983  134.5799 C   0  0  0  0  0  0  0  0  0  0  0  0
   10.3471   45.2881  133.7107 C   0  0  0  0  0  0  0  0  0  0  0  0
   11.1451   44.1748  133.8287 C   0  0  0  0  0  0  0  0  0  0  0  0
   11.3699   43.6662  135.0571 F   0  0  0  0  0  0  0  0  0  0  0  0
   11.7179   43.5647  132.7545 C   0  0  0  0  0  0  0  0  0  0  0  0
   11.4851   44.0882  131.5024 C   0  0  0  0  0  0  0  0  0  0  0  0
   12.0372   43.5187  130.3522 O   0  0  0  0  0  0  0  0  0  0  0  0
   10.6758   45.2228  131.3477 C   0  0  0  0  0  0  0  0  0  0  0  0
   10.1046   45.8269  132.4456 C   0  0  0  0  0  0  0  0  0  0  0  0
   12.6187   42.7155  130.3882 H   0  0  0  0  0  0  0  0  0  0  0  0
    7.1009   50.2123  128.6405 O   0  0  0  0  0  0  0  0  0  0  0  0
    7.6631   49.3906  129.6318 C   0  0  0  0  0  0  0  0  0  0  0  0
    8.7151   49.8323  130.4060 C   0  0  0  0  0  0  0  0  0  0  0  0
    9.2712   49.0405  131.3751 C   0  0  0  0  0  0  0  0  0  0  0  0
    8.7811   47.7809  131.5896 C   0  0  0  0  0  0  0  0  0  0  0  0
    7.7306   47.3503  130.8106 C   0  0  0  0  0  0  0  0  0  0  0  0
    7.1569   48.1229  129.8352 C   0  0  0  0  0  0  0  0  0  0  0  0
    7.4781   50.1732  127.7050 H   0  0  0  0  0  0  0  0  0  0  0  0
   10.4690   45.7256  130.0030 C   0  0  0  0  0  0  0  0  0  0  0  0
   10.3146   46.1083  128.8990 N   0  0  0  0  0  0  0  0  0  0  0  0
 13 14  1  0  0  0
 14 15  2  0  0  0
 15 16  1  0  0  0
 16 17  2  0  0  0
 17 18  1  0  0  0
 18 19  2  0  0  0
 17  1  1  0  0  0
  1  2  1  0  0  0
  2  3  2  0  0  0
  3  4  1  0  0  0
  4  5  2  0  0  0
  5  6  1  0  0  0
  5  7  1  0  0  0
  7  8  2  0  0  0
  8  9  1  0  0  0
  8 10  1  0  0  0
 10 21  1  0  0  0
 21 22  3  0  0  0
 10 11  2  0  0  0
 19 14  1  0  0  0
 11  1  1  0  0  0
 11  4  1  0  0  0
 13 20  1  0  0  0
  9 12  1  0  0  0
M  END
> <minimizedAffinity>
-8.15234

> <CNNscore>
0.6789047718

> <CNNaffinity>
7.2302980423

> <CNN_VS>
4.9086837769

> <CNNaffinity_variance>
0.7295593023

$$$$
[H]Oc1c([H])c([H])c(-n2nc([H])c3c(F)c([H])c(O[H])c(C#N)c32)c([H])c1[H]


 22 24  0  0  0  0  0  0  0  0999 V2000
    9.0989   46.2820  132.5282 N   0  0  0  0  0  0  0  0  0  0  0  0
    8.5958   46.4586  133.7456 N   0  0  0  0  0  0  0  0  0  0  0  0
    9.3009   45.7935  134.6596 C   0  0  0  0  0  0  0  0  0  0  0  0
   10.3227   45.1451  134.0043 C   0  0  0  0  0  0  0  0  0  0  0  0
   11.3606   44.3218  134.3720 C   0  0  0  0  0  0  0  0  0  0  0  0
   11.5070   44.0063  135.6748 F   0  0  0  0  0  0  0  0  0  0  0  0
   12.2472   43.8119  133.4731 C   0  0  0  0  0  0  0  0  0  0  0  0
   12.0933   44.1372  132.1440 C   0  0  0  0  0  0  0  0  0  0  0  0
   12.9620   43.6536  131.1624 O   0  0  0  0  0  0  0  0  0  0  0  0
   11.0450   44.9745  131.7360 C   0  0  0  0  0  0  0  0  0  0  0  0
   10.1576   45.4812  132.6592 C   0  0  0  0  0  0  0  0  0  0  0  0
   13.7244   43.0571  131.3802 H   0  0  0  0  0  0  0  0  0  0  0  0
    6.6986   48.4887  127.9843 O   0  0  0  0  0  0  0  0  0  0  0  0
    7.3075   47.9477  129.1290 C   0  0  0  0  0  0  0  0  0  0  0  0
    8.3318   48.6132  129.7687 C   0  0  0  0  0  0  0  0  0  0  0  0
    8.9329   48.0958  130.8851 C   0  0  0  0  0  0  0  0  0  0  0  0
    8.5170   46.8926  131.3869 C   0  0  0  0  0  0  0  0  0  0  0  0
    7.4934   46.2369  130.7401 C   0  0  0  0  0  0  0  0  0  0  0  0
    6.8759   46.7331  129.6221 C   0  0  0  0  0  0  0  0  0  0  0  0
    7.0776   48.2589  127.0774 H   0  0  0  0  0  0  0  0  0  0  0  0
   10.9366   45.2796  130.3222 C   0  0  0  0  0  0  0  0  0  0  0  0
   10.8566   45.4980  129.1668 N   0  0  0  0  0  0  0  0  0  0  0  0
 13 14  1  0  0  0
 14 15  2  0  0  0
 15 16  1  0  0  0
 16 17  2  0  0  0
 17 18  1  0  0  0
 18 19  2  0  0  0
 17  1  1  0  0  0
  1  2  1  0  0  0
  2  3  2  0  0  0
  3  4  1  0  0  0
  4  5  2  0  0  0
  5  6  1  0  0  0
  5  7  1  0  0  0
  7  8  2  0  0  0
  8  9  1  0  0  0
  8 10  1  0  0  0
 10 21  1  0  0  0
 21 22  3  0  0  0
 10 11  2  0  0  0
 19 14  1  0  0  0
 11  1  1  0  0  0
 11  4  1  0  0  0
 13 20  1  0  0  0
  9 12  1  0  0  0
M  END
> <minimizedAffinity>
-8.14289

> <CNNscore>
0.5876761079

> <CNNaffinity>
7.0057282448

> <CNN_VS>
4.1170992851

> <CNNaffinity_variance>
0.4253786206

$$$$
[H]Oc1c([H])c([H])c(-n2nc([H])c3c(F)c([H])c(O[H])c(C#N)c32)c([H])c1[H]


 22 24  0  0  0  0  0  0  0  0999 V2000
    9.0609   46.1770  132.4439 N   0  0  0  0  0  0  0  0  0  0  0  0
    8.5220   46.3515  133.6462 N   0  0  0  0  0  0  0  0  0  0  0  0
    9.2190   45.7116  134.5842 C   0  0  0  0  0  0  0  0  0  0  0  0
   10.2730   45.0829  133.9614 C   0  0  0  0  0  0  0  0  0  0  0  0
   11.3206   44.2884  134.3633 C   0  0  0  0  0  0  0  0  0  0  0  0
   11.4405   43.9876  135.6722 F   0  0  0  0  0  0  0  0  0  0  0  0
   12.2424   43.7928  133.4922 C   0  0  0  0  0  0  0  0  0  0  0  0
   12.1153   44.1030  132.1567 C   0  0  0  0  0  0  0  0  0  0  0  0
   13.0208   43.6324  131.2023 O   0  0  0  0  0  0  0  0  0  0  0  0
   11.0580   44.9108  131.7142 C   0  0  0  0  0  0  0  0  0  0  0  0
   10.1348   45.4034  132.6095 C   0  0  0  0  0  0  0  0  0  0  0  0
   13.7916   43.0567  131.4451 H   0  0  0  0  0  0  0  0  0  0  0  0
    6.9346   48.6862  127.9204 O   0  0  0  0  0  0  0  0  0  0  0  0
    7.4625   48.0429  129.0525 C   0  0  0  0  0  0  0  0  0  0  0  0
    6.9790   46.8183  129.4618 C   0  0  0  0  0  0  0  0  0  0  0  0
    7.4856   46.1818  130.5635 C   0  0  0  0  0  0  0  0  0  0  0  0
    8.4942   46.7635  131.2824 C   0  0  0  0  0  0  0  0  0  0  0  0
    8.9693   47.9865  130.8645 C   0  0  0  0  0  0  0  0  0  0  0  0
    8.4796   48.6435  129.7663 C   0  0  0  0  0  0  0  0  0  0  0  0
    6.1542   49.3154  128.0385 H   0  0  0  0  0  0  0  0  0  0  0  0
   10.9792   45.2013  130.2953 C   0  0  0  0  0  0  0  0  0  0  0  0
   10.9295   45.4100  129.1364 N   0  0  0  0  0  0  0  0  0  0  0  0
 13 14  1  0  0  0
 14 15  2  0  0  0
 15 16  1  0  0  0
 16 17  2  0  0  0
 17 18  1  0  0  0
 18 19  2  0  0  0
 17  1  1  0  0  0
  1  2  1  0  0  0
  2  3  2  0  0  0
  3  4  1  0  0  0
  4  5  2  0  0  0
  5  6  1  0  0  0
  5  7  1  0  0  0
  7  8  2  0  0  0
  8  9  1  0  0  0
  8 10  1  0  0  0
 10 21  1  0  0  0
 21 22  3  0  0  0
 10 11  2  0  0  0
 19 14  1  0  0  0
 11  1  1  0  0  0
 11  4  1  0  0  0
 13 20  1  0  0  0
  9 12  1  0  0  0
M  END
> <minimizedAffinity>
-8.21652

> <CNNscore>
0.5761172175

> <CNNaffinity>
6.9919672012

> <CNN_VS>
4.0281925201

> <CNNaffinity_variance>
0.4189090133

$$$$
[H]Oc1c([H])c([H])c(-n2nc([H])c3c(F)c([H])c(O[H])c(C#N)c32)c([H])c1[H]


 22 24  0  0  0  0  0  0  0  0999 V2000
    9.7449   46.3802  129.5477 N   0  0  0  0  0  0  0  0  0  0  0  0
   10.1950   45.7878  128.4465 N   0  0  0  0  0  0  0  0  0  0  0  0
   11.2330   44.9968  128.7148 C   0  0  0  0  0  0  0  0  0  0  0  0
   11.4762   45.0757  130.0671 C   0  0  0  0  0  0  0  0  0  0  0  0
   12.3813   44.5164  130.9378 C   0  0  0  0  0  0  0  0  0  0  0  0
   13.3058   43.6635  130.4518 F   0  0  0  0  0  0  0  0  0  0  0  0
   12.3819   44.7893  132.2718 C   0  0  0  0  0  0  0  0  0  0  0  0
   11.4358   45.6609  132.7628 C   0  0  0  0  0  0  0  0  0  0  0  0
   11.3722   45.9907  134.1191 O   0  0  0  0  0  0  0  0  0  0  0  0
   10.4983   46.2485  131.9012 C   0  0  0  0  0  0  0  0  0  0  0  0
   10.5126   45.9609  130.5546 C   0  0  0  0  0  0  0  0  0  0  0  0
   12.0038   45.6123  134.7842 H   0  0  0  0  0  0  0  0  0  0  0  0
    5.2617   49.7186  129.3594 O   0  0  0  0  0  0  0  0  0  0  0  0
    6.3963   48.8915  129.4114 C   0  0  0  0  0  0  0  0  0  0  0  0
    7.6638   49.4302  129.4782 C   0  0  0  0  0  0  0  0  0  0  0  0
    8.7769   48.6342  129.5294 C   0  0  0  0  0  0  0  0  0  0  0  0
    8.6417   47.2725  129.5145 C   0  0  0  0  0  0  0  0  0  0  0  0
    7.3713   46.7456  129.4476 C   0  0  0  0  0  0  0  0  0  0  0  0
    6.2422   47.5201  129.3956 C   0  0  0  0  0  0  0  0  0  0  0  0
    4.9134   50.0100  128.4579 H   0  0  0  0  0  0  0  0  0  0  0  0
    9.5278   47.1580  132.4797 C   0  0  0  0  0  0  0  0  0  0  0  0
    8.7575   47.8999  132.9749 N   0  0  0  0  0  0  0  0  0  0  0  0
 13 14  1  0  0  0
 14 15  2  0  0  0
 15 16  1  0  0  0
 16 17  2  0  0  0
 17 18  1  0  0  0
 18 19  2  0  0  0
 17  1  1  0  0  0
  1  2  1  0  0  0
  2  3  2  0  0  0
  3  4  1  0  0  0
  4  5  2  0  0  0
  5  6  1  0  0  0
  5  7  1  0  0  0
  7  8  2  0  0  0
  8  9  1  0  0  0
  8 10  1  0  0  0
 10 21  1  0  0  0
 21 22  3  0  0  0
 10 11  2  0  0  0
 19 14  1  0  0  0
 11  1  1  0  0  0
 11  4  1  0  0  0
 13 20  1  0  0  0
  9 12  1  0  0  0
M  END
> <minimizedAffinity>
-8.39904

> <CNNscore>
0.4974908233

> <CNNaffinity>
6.7048330307

> <CNN_VS>
3.3355929852

> <CNNaffinity_variance>
0.1382437646

$$$$
[H]Oc1c([H])c([H])c(-n2nc([H])c3c(F)c([H])c(O[H])c(C#N)c32)c([H])c1[H]


 22 24  0  0  0  0  0  0  0  0999 V2000
    9.9053   47.4937  131.7873 N   0  0  0  0  0  0  0  0  0  0  0  0
   10.3215   48.6358  132.3246 N   0  0  0  0  0  0  0  0  0  0  0  0
    9.5701   49.6598  131.9221 C   0  0  0  0  0  0  0  0  0  0  0  0
    8.6083   49.1604  131.0739 C   0  0  0  0  0  0  0  0  0  0  0  0
    7.5650   49.6882  130.3505 C   0  0  0  0  0  0  0  0  0  0  0  0
    7.3377   51.0157  130.4158 F   0  0  0  0  0  0  0  0  0  0  0  0
    6.7517   48.9240  129.5704 C   0  0  0  0  0  0  0  0  0  0  0  0
    6.9882   47.5690  129.5073 C   0  0  0  0  0  0  0  0  0  0  0  0
    6.1977   46.7193  128.7293 O   0  0  0  0  0  0  0  0  0  0  0  0
    8.0443   46.9993  130.2328 C   0  0  0  0  0  0  0  0  0  0  0  0
    8.8569   47.7876  131.0169 C   0  0  0  0  0  0  0  0  0  0  0  0
    5.4347   47.0546  128.1909 H   0  0  0  0  0  0  0  0  0  0  0  0
   12.5444   42.6448  132.6831 O   0  0  0  0  0  0  0  0  0  0  0  0
   11.8761   43.8625  132.4721 C   0  0  0  0  0  0  0  0  0  0  0  0
   10.8716   44.2763  133.3211 C   0  0  0  0  0  0  0  0  0  0  0  0
   10.2131   45.4610  133.1256 C   0  0  0  0  0  0  0  0  0  0  0  0
   10.5503   46.2610  132.0678 C   0  0  0  0  0  0  0  0  0  0  0  0
   11.5548   45.8379  131.2264 C   0  0  0  0  0  0  0  0  0  0  0  0
   12.2285   44.6575  131.4004 C   0  0  0  0  0  0  0  0  0  0  0  0
   12.1788   41.8085  132.2519 H   0  0  0  0  0  0  0  0  0  0  0  0
    8.2414   45.5664  130.1244 C   0  0  0  0  0  0  0  0  0  0  0  0
    8.3773   44.4007  130.0164 N   0  0  0  0  0  0  0  0  0  0  0  0
 13 14  1  0  0  0
 14 15  2  0  0  0
 15 16  1  0  0  0
 16 17  2  0  0  0
 17 18  1  0  0  0
 18 19  2  0  0  0
 17  1  1  0  0  0
  1  2  1  0  0  0
  2  3  2  0  0  0
  3  4  1  0  0  0
  4  5  2  0  0  0
  5  6  1  0  0  0
  5  7  1  0  0  0
  7  8  2  0  0  0
  8  9  1  0  0  0
  8 10  1  0  0  0
 10 21  1  0  0  0
 21 22  3  0  0  0
 10 11  2  0  0  0
 19 14  1  0  0  0
 11  1  1  0  0  0
 11  4  1  0  0  0
 13 20  1  0  0  0
  9 12  1  0  0  0
M  END
> <minimizedAffinity>
-8.93894

> <CNNscore>
0.4707086384

> <CNNaffinity>
6.8653030396

> <CNN_VS>
3.2315573692

> <CNNaffinity_variance>
0.1660736352

$$$$
[H]Oc1c([H])c([H])c(-n2nc([H])c3c(F)c([H])c(O[H])c(C#N)c32)c([H])c1[H]


 22 24  0  0  0  0  0  0  0  0999 V2000
    9.8888   46.4598  132.1742 N   0  0  0  0  0  0  0  0  0  0  0  0
   10.5318   46.6442  133.3226 N   0  0  0  0  0  0  0  0  0  0  0  0
   10.5580   47.9332  133.6587 C   0  0  0  0  0  0  0  0  0  0  0  0
    9.8954   48.6319  132.6754 C   0  0  0  0  0  0  0  0  0  0  0  0
    9.5881   49.9518  132.4440 C   0  0  0  0  0  0  0  0  0  0  0  0
    9.9876   50.8767  133.3402 F   0  0  0  0  0  0  0  0  0  0  0  0
    8.8962   50.3629  131.3456 C   0  0  0  0  0  0  0  0  0  0  0  0
    8.4907   49.4144  130.4336 C   0  0  0  0  0  0  0  0  0  0  0  0
    7.7772   49.7578  129.2825 O   0  0  0  0  0  0  0  0  0  0  0  0
    8.7882   48.0597  130.6401 C   0  0  0  0  0  0  0  0  0  0  0  0
    9.4890   47.6620  131.7569 C   0  0  0  0  0  0  0  0  0  0  0  0
    7.5329   50.6965  129.0736 H   0  0  0  0  0  0  0  0  0  0  0  0
    9.4296   41.4185  129.7965 O   0  0  0  0  0  0  0  0  0  0  0  0
    9.5349   42.6809  130.4042 C   0  0  0  0  0  0  0  0  0  0  0  0
    8.5811   43.1190  131.2984 C   0  0  0  0  0  0  0  0  0  0  0  0
    8.6731   44.3473  131.8969 C   0  0  0  0  0  0  0  0  0  0  0  0
    9.7302   45.1675  131.6095 C   0  0  0  0  0  0  0  0  0  0  0  0
   10.6766   44.7197  130.7152 C   0  0  0  0  0  0  0  0  0  0  0  0
   10.6074   43.4957  130.1033 C   0  0  0  0  0  0  0  0  0  0  0  0
    8.9340   41.3404  128.9206 H   0  0  0  0  0  0  0  0  0  0  0  0
    8.3335   47.1096  129.6429 C   0  0  0  0  0  0  0  0  0  0  0  0
    7.9344   46.3429  128.8418 N   0  0  0  0  0  0  0  0  0  0  0  0
 13 14  1  0  0  0
 14 15  2  0  0  0
 15 16  1  0  0  0
 16 17  2  0  0  0
 17 18  1  0  0  0
 18 19  2  0  0  0
 17  1  1  0  0  0
  1  2  1  0  0  0
  2  3  2  0  0  0
  3  4  1  0  0  0
  4  5  2  0  0  0
  5  6  1  0  0  0
  5  7  1  0  0  0
  7  8  2  0  0  0
  8  9  1  0  0  0
  8 10  1  0  0  0
 10 21  1  0  0  0
 21 22  3  0  0  0
 10 11  2  0  0  0
 19 14  1  0  0  0
 11  1  1  0  0  0
 11  4  1  0  0  0
 13 20  1  0  0  0
  9 12  1  0  0  0
M  END
> <minimizedAffinity>
-6.32341

> <CNNscore>
0.4346886277

> <CNNaffinity>
6.6137900352

> <CNN_VS>
2.8749392033

> <CNNaffinity_variance>
0.2966793478

$$$$
[H]Oc1c([H])c([H])c(-n2nc([H])c3c(F)c([H])c(O[H])c(C#N)c32)c([H])c1[H]


 22 24  0  0  0  0  0  0  0  0999 V2000
    9.3924   45.7539  131.6452 N   0  0  0  0  0  0  0  0  0  0  0  0
    8.7276   46.9047  131.6537 N   0  0  0  0  0  0  0  0  0  0  0  0
    8.6684   47.4180  132.8817 C   0  0  0  0  0  0  0  0  0  0  0  0
    9.3312   46.5553  133.7245 C   0  0  0  0  0  0  0  0  0  0  0  0
    9.6138   46.5174  135.0695 C   0  0  0  0  0  0  0  0  0  0  0  0
    9.1805   47.5271  135.8511 F   0  0  0  0  0  0  0  0  0  0  0  0
   10.3139   45.5008  135.6443 C   0  0  0  0  0  0  0  0  0  0  0  0
   10.7540   44.4722  134.8416 C   0  0  0  0  0  0  0  0  0  0  0  0
   11.4781   43.3942  135.3573 O   0  0  0  0  0  0  0  0  0  0  0  0
   10.4824   44.4807  133.4659 C   0  0  0  0  0  0  0  0  0  0  0  0
    9.7728   45.5173  132.9016 C   0  0  0  0  0  0  0  0  0  0  0  0
   11.7054   43.3239  136.3205 H   0  0  0  0  0  0  0  0  0  0  0  0
   10.0081   42.6921  127.0058 O   0  0  0  0  0  0  0  0  0  0  0  0
    9.8626   43.4716  128.1655 C   0  0  0  0  0  0  0  0  0  0  0  0
   10.7473   44.4900  128.4508 C   0  0  0  0  0  0  0  0  0  0  0  0
   10.6157   45.2564  129.5780 C   0  0  0  0  0  0  0  0  0  0  0  0
    9.5875   45.0163  130.4486 C   0  0  0  0  0  0  0  0  0  0  0  0
    8.7101   43.9969  130.1537 C   0  0  0  0  0  0  0  0  0  0  0  0
    8.8200   43.2163  129.0330 C   0  0  0  0  0  0  0  0  0  0  0  0
   10.5687   41.8539  127.0505 H   0  0  0  0  0  0  0  0  0  0  0  0
   10.9731   43.3686  132.6746 C   0  0  0  0  0  0  0  0  0  0  0  0
   11.3988   42.4660  132.0475 N   0  0  0  0  0  0  0  0  0  0  0  0
 13 14  1  0  0  0
 14 15  2  0  0  0
 15 16  1  0  0  0
 16 17  2  0  0  0
 17 18  1  0  0  0
 18 19  2  0  0  0
 17  1  1  0  0  0
  1  2  1  0  0  0
  2  3  2  0  0  0
  3  4  1  0  0  0
  4  5  2  0  0  0
  5  6  1  0  0  0
  5  7  1  0  0  0
  7  8  2  0  0  0
  8  9  1  0  0  0
  8 10  1  0  0  0
 10 21  1  0  0  0
 21 22  3  0  0  0
 10 11  2  0  0  0
 19 14  1  0  0  0
 11  1  1  0  0  0
 11  4  1  0  0  0
 13 20  1  0  0  0
  9 12  1  0  0  0
M  END
> <minimizedAffinity>
-4.55565

> <CNNscore>
0.3457079530

> <CNNaffinity>
6.6934614182

> <CNN_VS>
2.3139829636

> <CNNaffinity_variance>
0.5273774862

$$$$
[H]Oc1c([H])c([H])c(-n2nc([H])c3c(F)c([H])c(O[H])c(C#N)c32)c([H])c1[H]


 22 24  0  0  0  0  0  0  0  0999 V2000
   10.4991   46.5031  131.6633 N   0  0  0  0  0  0  0  0  0  0  0  0
   11.6678   46.6247  132.2844 N   0  0  0  0  0  0  0  0  0  0  0  0
   12.2286   45.4344  132.4934 C   0  0  0  0  0  0  0  0  0  0  0  0
   11.3798   44.4801  131.9807 C   0  0  0  0  0  0  0  0  0  0  0  0
   11.3847   43.1085  131.8857 C   0  0  0  0  0  0  0  0  0  0  0  0
   12.4352   42.4282  132.3876 F   0  0  0  0  0  0  0  0  0  0  0  0
   10.3711   42.4091  131.3047 C   0  0  0  0  0  0  0  0  0  0  0  0
    9.3009   43.1087  130.7937 C   0  0  0  0  0  0  0  0  0  0  0  0
    8.2230   42.4626  130.1830 O   0  0  0  0  0  0  0  0  0  0  0  0
    9.2651   44.5082  130.8748 C   0  0  0  0  0  0  0  0  0  0  0  0
   10.2993   45.1992  131.4658 C   0  0  0  0  0  0  0  0  0  0  0  0
    8.1827   41.4754  130.0917 H   0  0  0  0  0  0  0  0  0  0  0  0
    7.4927   50.9682  130.1456 O   0  0  0  0  0  0  0  0  0  0  0  0
    8.2407   49.8462  130.5400 C   0  0  0  0  0  0  0  0  0  0  0  0
    8.2978   49.4616  131.8629 C   0  0  0  0  0  0  0  0  0  0  0  0
    9.0235   48.3699  132.2592 C   0  0  0  0  0  0  0  0  0  0  0  0
    9.7116   47.6362  131.3314 C   0  0  0  0  0  0  0  0  0  0  0  0
    9.6474   48.0294  130.0134 C   0  0  0  0  0  0  0  0  0  0  0  0
    8.9289   49.1171  129.5915 C   0  0  0  0  0  0  0  0  0  0  0  0
    7.9433   51.8713  130.1281 H   0  0  0  0  0  0  0  0  0  0  0  0
    8.1104   45.1868  130.3181 C   0  0  0  0  0  0  0  0  0  0  0  0
    7.1549   45.7279  129.8898 N   0  0  0  0  0  0  0  0  0  0  0  0
 13 14  1  0  0  0
 14 15  2  0  0  0
 15 16  1  0  0  0
 16 17  2  0  0  0
 17 18  1  0  0  0
 18 19  2  0  0  0
 17  1  1  0  0  0
  1  2  1  0  0  0
  2  3  2  0  0  0
  3  4  1  0  0  0
  4  5  2  0  0  0
  5  6  1  0  0  0
  5  7  1  0  0  0
  7  8  2  0  0  0
  8  9  1  0  0  0
  8 10  1  0  0  0
 10 21  1  0  0  0
 21 22  3  0  0  0
 10 11  2  0  0  0
 19 14  1  0  0  0
 11  1  1  0  0  0
 11  4  1  0  0  0
 13 20  1  0  0  0
  9 12  1  0  0  0
M  END
> <minimizedAffinity>
-7.26829

> <CNNscore>
0.2834281623

> <CNNaffinity>
6.6640348434

> <CNN_VS>
1.8887751102

> <CNNaffinity_variance>
0.2352663279

$$$$
[H]Oc1c([H])c([H])c2c(oc(=O)c3c2oc2c([H])c(O[H])c([H])c([H])c23)c1[H]


 22 25  0  0  0  0  0  0  0  0999 V2000
    6.6349   51.2017  128.8407 O   0  0  0  0  0  0  0  0  0  0  0  0
    7.3934   50.1395  129.3536 C   0  0  0  0  0  0  0  0  0  0  0  0
    7.4936   48.9625  128.6405 C   0  0  0  0  0  0  0  0  0  0  0  0
    8.2527   47.9552  129.1958 C   0  0  0  0  0  0  0  0  0  0  0  0
    8.8975   48.0916  130.4146 C   0  0  0  0  0  0  0  0  0  0  0  0
    8.7861   49.2781  131.1154 C   0  0  0  0  0  0  0  0  0  0  0  0
    8.0215   50.3171  130.5746 C   0  0  0  0  0  0  0  0  0  0  0  0
    9.3985   49.4208  132.2829 O   0  0  0  0  0  0  0  0  0  0  0  0
   10.1252   48.4476  132.8078 C   0  0  0  0  0  0  0  0  0  0  0  0
   10.6733   48.6575  133.9147 O   0  0  0  0  0  0  0  0  0  0  0  0
   10.2719   47.2475  132.1578 C   0  0  0  0  0  0  0  0  0  0  0  0
   10.9350   46.0720  132.4200 C   0  0  0  0  0  0  0  0  0  0  0  0
   11.7169   45.6982  133.4920 C   0  0  0  0  0  0  0  0  0  0  0  0
   12.2840   44.4439  133.5287 C   0  0  0  0  0  0  0  0  0  0  0  0
   12.0405   43.5983  132.4704 C   0  0  0  0  0  0  0  0  0  0  0  0
   12.6029   42.3296  132.4882 O   0  0  0  0  0  0  0  0  0  0  0  0
   11.2653   43.9319  131.3800 C   0  0  0  0  0  0  0  0  0  0  0  0
   10.7046   45.1934  131.3595 C   0  0  0  0  0  0  0  0  0  0  0  0
    9.9374   45.8411  130.5193 O   0  0  0  0  0  0  0  0  0  0  0  0
    9.6544   47.0499  130.9401 C   0  0  0  0  0  0  0  0  0  0  0  0
    6.1639   51.1027  127.9510 H   0  0  0  0  0  0  0  0  0  0  0  0
   12.4774   41.6611  131.7674 H   0  0  0  0  0  0  0  0  0  0  0  0
  1  2  1  0  0  0
  2  3  2  0  0  0
  3  4  1  0  0  0
  4  5  2  0  0  0
  5  6  1  0  0  0
  6  7  2  0  0  0
  6  8  1  0  0  0
  8  9  1  0  0  0
  9 10  2  0  0  0
  9 11  1  0  0  0
 11 12  1  0  0  0
 12 13  2  0  0  0
 13 14  1  0  0  0
 14 15  2  0  0  0
 15 16  1  0  0  0
 15 17  1  0  0  0
 17 18  2  0  0  0
 18 19  1  0  0  0
 19 20  1  0  0  0
  7  2  1  0  0  0
 20 11  2  0  0  0
 20  5  1  0  0  0
 18 12  1  0  0  0
  1 21  1  0  0  0
 16 22  1  0  0  0
M  END
> <minimizedAffinity>
-10.07729

> <CNNscore>
0.7510284185

> <CNNaffinity>
6.8078079224

> <CNN_VS>
5.1128573418

> <CNNaffinity_variance>
0.3387847245

$$$$
[H]Oc1c([H])c([H])c2c(oc(=O)c3c2oc2c([H])c(O[H])c([H])c([H])c23)c1[H]


 22 25  0  0  0  0  0  0  0  0999 V2000
    6.6799   51.1452  128.9556 O   0  0  0  0  0  0  0  0  0  0  0  0
    7.4482   50.1159  129.5184 C   0  0  0  0  0  0  0  0  0  0  0  0
    8.3368   50.4016  130.5346 C   0  0  0  0  0  0  0  0  0  0  0  0
    9.0634   49.3487  131.0471 C   0  0  0  0  0  0  0  0  0  0  0  0
    8.9273   48.0508  130.5813 C   0  0  0  0  0  0  0  0  0  0  0  0
    8.0321   47.7828  129.5625 C   0  0  0  0  0  0  0  0  0  0  0  0
    7.2818   48.8334  129.0240 C   0  0  0  0  0  0  0  0  0  0  0  0
    7.8929   46.5449  129.1082 O   0  0  0  0  0  0  0  0  0  0  0  0
    8.5952   45.5406  129.6069 C   0  0  0  0  0  0  0  0  0  0  0  0
    8.4083   44.3990  129.1256 O   0  0  0  0  0  0  0  0  0  0  0  0
    9.4990   45.7461  130.6194 C   0  0  0  0  0  0  0  0  0  0  0  0
   10.3581   44.9468  131.3358 C   0  0  0  0  0  0  0  0  0  0  0  0
   10.6026   43.5922  131.2608 C   0  0  0  0  0  0  0  0  0  0  0  0
   11.5263   43.0098  132.0996 C   0  0  0  0  0  0  0  0  0  0  0  0
   12.1807   43.8229  132.9970 C   0  0  0  0  0  0  0  0  0  0  0  0
   13.1156   43.2554  133.8514 O   0  0  0  0  0  0  0  0  0  0  0  0
   11.9664   45.1807  133.1049 C   0  0  0  0  0  0  0  0  0  0  0  0
   11.0368   45.7481  132.2561 C   0  0  0  0  0  0  0  0  0  0  0  0
   10.5837   46.9628  132.0746 O   0  0  0  0  0  0  0  0  0  0  0  0
    9.6801   47.0163  131.1264 C   0  0  0  0  0  0  0  0  0  0  0  0
    6.7788   52.0929  129.2952 H   0  0  0  0  0  0  0  0  0  0  0  0
   13.6295   43.7692  134.5253 H   0  0  0  0  0  0  0  0  0  0  0  0
  1  2  1  0  0  0
  2  3  2  0  0  0
  3  4  1  0  0  0
  4  5  2  0  0  0
  5  6  1  0  0  0
  6  7  2  0  0  0
  6  8  1  0  0  0
  8  9  1  0  0  0
  9 10  2  0  0  0
  9 11  1  0  0  0
 11 12  1  0  0  0
 12 13  2  0  0  0
 13 14  1  0  0  0
 14 15  2  0  0  0
 15 16  1  0  0  0
 15 17  1  0  0  0
 17 18  2  0  0  0
 18 19  1  0  0  0
 19 20  1  0  0  0
  7  2  1  0  0  0
 20 11  2  0  0  0
 20  5  1  0  0  0
 18 12  1  0  0  0
  1 21  1  0  0  0
 16 22  1  0  0  0
M  END
> <minimizedAffinity>
-10.09435

> <CNNscore>
0.7066413164

> <CNNaffinity>
7.0085334778

> <CNN_VS>
4.9525194168

> <CNNaffinity_variance>
0.5618084669

$$$$
[H]Oc1c([H])c([H])c2c(oc(=O)c3c2oc2c([H])c(O[H])c([H])c([H])c23)c1[H]


 22 25  0  0  0  0  0  0  0  0999 V2000
   13.0278   43.1485  133.7406 O   0  0  0  0  0  0  0  0  0  0  0  0
   12.2241   44.1179  133.1233 C   0  0  0  0  0  0  0  0  0  0  0  0
   12.2449   45.4188  133.5831 C   0  0  0  0  0  0  0  0  0  0  0  0
   11.4337   46.3258  132.9363 C   0  0  0  0  0  0  0  0  0  0  0  0
   10.6232   45.9741  131.8688 C   0  0  0  0  0  0  0  0  0  0  0  0
   10.6151   44.6660  131.4214 C   0  0  0  0  0  0  0  0  0  0  0  0
   11.4291   43.7248  132.0602 C   0  0  0  0  0  0  0  0  0  0  0  0
    9.8438   44.3171  130.4008 O   0  0  0  0  0  0  0  0  0  0  0  0
    9.0682   45.1956  129.7863 C   0  0  0  0  0  0  0  0  0  0  0  0
    8.3677   44.7903  128.8298 O   0  0  0  0  0  0  0  0  0  0  0  0
    9.0346   46.5082  130.1862 C   0  0  0  0  0  0  0  0  0  0  0  0
    8.3624   47.6351  129.7757 C   0  0  0  0  0  0  0  0  0  0  0  0
    7.4455   47.8186  128.7627 C   0  0  0  0  0  0  0  0  0  0  0  0
    6.9011   49.0639  128.5415 C   0  0  0  0  0  0  0  0  0  0  0  0
    7.3043   50.0950  129.3593 C   0  0  0  0  0  0  0  0  0  0  0  0
    6.7674   51.3581  129.1529 O   0  0  0  0  0  0  0  0  0  0  0  0
    8.2177   49.9549  130.3826 C   0  0  0  0  0  0  0  0  0  0  0  0
    8.7536   48.6995  130.5903 C   0  0  0  0  0  0  0  0  0  0  0  0
    9.6188   48.2017  131.4375 O   0  0  0  0  0  0  0  0  0  0  0  0
    9.8190   46.9208  131.2434 C   0  0  0  0  0  0  0  0  0  0  0  0
   13.6197   43.4047  134.5199 H   0  0  0  0  0  0  0  0  0  0  0  0
    7.0038   52.1528  129.6958 H   0  0  0  0  0  0  0  0  0  0  0  0
  1  2  1  0  0  0
  2  3  2  0  0  0
  3  4  1  0  0  0
  4  5  2  0  0  0
  5  6  1  0  0  0
  6  7  2  0  0  0
  6  8  1  0  0  0
  8  9  1  0  0  0
  9 10  2  0  0  0
  9 11  1  0  0  0
 11 12  1  0  0  0
 12 13  2  0  0  0
 13 14  1  0  0  0
 14 15  2  0  0  0
 15 16  1  0  0  0
 15 17  1  0  0  0
 17 18  2  0  0  0
 18 19  1  0  0  0
 19 20  1  0  0  0
  7  2  1  0  0  0
 20 11  2  0  0  0
 20  5  1  0  0  0
 18 12  1  0  0  0
  1 21  1  0  0  0
 16 22  1  0  0  0
M  END
> <minimizedAffinity>
-9.40898

> <CNNscore>
0.6790515184

> <CNNaffinity>
6.9513368607

> <CNN_VS>
4.7203159332

> <CNNaffinity_variance>
0.6590232253

$$$$
[H]Oc1c([H])c([H])c2c(oc(=O)c3c2oc2c([H])c(O[H])c([H])c([H])c23)c1[H]


 22 25  0  0  0  0  0  0  0  0999 V2000
   11.3169   41.3079  132.0877 O   0  0  0  0  0  0  0  0  0  0  0  0
   10.7842   42.5508  131.7162 C   0  0  0  0  0  0  0  0  0  0  0  0
   10.0892   42.6712  130.5302 C   0  0  0  0  0  0  0  0  0  0  0  0
    9.5898   43.9174  130.2195 C   0  0  0  0  0  0  0  0  0  0  0  0
    9.7632   45.0179  131.0434 C   0  0  0  0  0  0  0  0  0  0  0  0
   10.4623   44.8789  132.2280 C   0  0  0  0  0  0  0  0  0  0  0  0
   10.9801   43.6247  132.5677 C   0  0  0  0  0  0  0  0  0  0  0  0
   10.6349   45.9246  133.0249 O   0  0  0  0  0  0  0  0  0  0  0  0
   10.1514   47.1173  132.7177 C   0  0  0  0  0  0  0  0  0  0  0  0
   10.3554   48.0568  133.5211 O   0  0  0  0  0  0  0  0  0  0  0  0
    9.4491   47.3157  131.5551 C   0  0  0  0  0  0  0  0  0  0  0  0
    8.8345   48.3917  130.9595 C   0  0  0  0  0  0  0  0  0  0  0  0
    8.7200   49.7036  131.3673 C   0  0  0  0  0  0  0  0  0  0  0  0
    8.0445   50.6133  130.5849 C   0  0  0  0  0  0  0  0  0  0  0  0
    7.5005   50.1642  129.4030 C   0  0  0  0  0  0  0  0  0  0  0  0
    6.8157   51.0655  128.5999 O   0  0  0  0  0  0  0  0  0  0  0  0
    7.5919   48.8623  128.9582 C   0  0  0  0  0  0  0  0  0  0  0  0
    8.2726   47.9635  129.7551 C   0  0  0  0  0  0  0  0  0  0  0  0
    8.5543   46.6883  129.6629 O   0  0  0  0  0  0  0  0  0  0  0  0
    9.2426   46.2590  130.6927 C   0  0  0  0  0  0  0  0  0  0  0  0
   11.1906   40.5041  131.4866 H   0  0  0  0  0  0  0  0  0  0  0  0
    6.3951   50.8241  127.7355 H   0  0  0  0  0  0  0  0  0  0  0  0
  1  2  1  0  0  0
  2  3  2  0  0  0
  3  4  1  0  0  0
  4  5  2  0  0  0
  5  6  1  0  0  0
  6  7  2  0  0  0
  6  8  1  0  0  0
  8  9  1  0  0  0
  9 10  2  0  0  0
  9 11  1  0  0  0
 11 12  1  0  0  0
 12 13  2  0  0  0
 13 14  1  0  0  0
 14 15  2  0  0  0
 15 16  1  0  0  0
 15 17  1  0  0  0
 17 18  2  0  0  0
 18 19  1  0  0  0
 19 20  1  0  0  0
  7  2  1  0  0  0
 20 11  2  0  0  0
 20  5  1  0  0  0
 18 12  1  0  0  0
  1 21  1  0  0  0
 16 22  1  0  0  0
M  END
> <minimizedAffinity>
-9.37146

> <CNNscore>
0.6538207531

> <CNNaffinity>
6.9487395287

> <CNN_VS>
4.5432300568

> <CNNaffinity_variance>
0.5242707133

$$$$
[H]Oc1c([H])c([H])c2c(oc(=O)c3c2oc2c([H])c(O[H])c([H])c([H])c23)c1[H]


 22 25  0  0  0  0  0  0  0  0999 V2000
   12.9046   42.6774  132.7821 O   0  0  0  0  0  0  0  0  0  0  0  0
   11.9590   43.6090  132.3298 C   0  0  0  0  0  0  0  0  0  0  0  0
   11.0154   43.2294  131.3973 C   0  0  0  0  0  0  0  0  0  0  0  0
   10.1131   44.1888  130.9915 C   0  0  0  0  0  0  0  0  0  0  0  0
   10.1300   45.4846  131.4820 C   0  0  0  0  0  0  0  0  0  0  0  0
   11.0826   45.8473  132.4159 C   0  0  0  0  0  0  0  0  0  0  0  0
   12.0108   44.8929  132.8451 C   0  0  0  0  0  0  0  0  0  0  0  0
   11.1091   47.0843  132.8928 O   0  0  0  0  0  0  0  0  0  0  0  0
   10.2383   47.9985  132.4968 C   0  0  0  0  0  0  0  0  0  0  0  0
   10.3269   49.1456  132.9928 O   0  0  0  0  0  0  0  0  0  0  0  0
    9.2699   47.6964  131.5720 C   0  0  0  0  0  0  0  0  0  0  0  0
    8.2482   48.3910  130.9687 C   0  0  0  0  0  0  0  0  0  0  0  0
    7.8430   49.7011  131.1095 C   0  0  0  0  0  0  0  0  0  0  0  0
    6.7726   50.1744  130.3840 C   0  0  0  0  0  0  0  0  0  0  0  0
    6.1391   49.3002  129.5302 C   0  0  0  0  0  0  0  0  0  0  0  0
    5.0581   49.7576  128.7898 O   0  0  0  0  0  0  0  0  0  0  0  0
    6.5117   47.9837  129.3595 C   0  0  0  0  0  0  0  0  0  0  0  0
    7.5869   47.5258  130.0948 C   0  0  0  0  0  0  0  0  0  0  0  0
    8.2063   46.3766  130.1931 O   0  0  0  0  0  0  0  0  0  0  0  0
    9.2008   46.4230  131.0459 C   0  0  0  0  0  0  0  0  0  0  0  0
   12.8927   41.7312  132.4244 H   0  0  0  0  0  0  0  0  0  0  0  0
    4.5478   49.1942  128.1539 H   0  0  0  0  0  0  0  0  0  0  0  0
  1  2  1  0  0  0
  2  3  2  0  0  0
  3  4  1  0  0  0
  4  5  2  0  0  0
  5  6  1  0  0  0
  6  7  2  0  0  0
  6  8  1  0  0  0
  8  9  1  0  0  0
  9 10  2  0  0  0
  9 11  1  0  0  0
 11 12  1  0  0  0
 12 13  2  0  0  0
 13 14  1  0  0  0
 14 15  2  0  0  0
 15 16  1  0  0  0
 15 17  1  0  0  0
 17 18  2  0  0  0
 18 19  1  0  0  0
 19 20  1  0  0  0
  7  2  1  0  0  0
 20 11  2  0  0  0
 20  5  1  0  0  0
 18 12  1  0  0  0
  1 21  1  0  0  0
 16 22  1  0  0  0
M  END
> <minimizedAffinity>
-9.35968

> <CNNscore>
0.6434586644

> <CNNaffinity>
6.8854660988

> <CNN_VS>
4.4305129051

> <CNNaffinity_variance>
0.4707601964

$$$$
[H]Oc1c([H])c([H])c2c(oc(=O)c3c2oc2c([H])c(O[H])c([H])c([H])c23)c1[H]


 22 25  0  0  0  0  0  0  0  0999 V2000
    4.8815   49.8634  128.9476 O   0  0  0  0  0  0  0  0  0  0  0  0
    5.8339   48.9588  129.4387 C   0  0  0  0  0  0  0  0  0  0  0  0
    5.6445   47.6031  129.2646 C   0  0  0  0  0  0  0  0  0  0  0  0
    6.6146   46.7643  129.7689 C   0  0  0  0  0  0  0  0  0  0  0  0
    7.7404   47.2345  130.4258 C   0  0  0  0  0  0  0  0  0  0  0  0
    7.9138   48.5961  130.5912 C   0  0  0  0  0  0  0  0  0  0  0  0
    6.9441   49.4702  130.0889 C   0  0  0  0  0  0  0  0  0  0  0  0
    8.9869   49.0585  131.2181 O   0  0  0  0  0  0  0  0  0  0  0  0
    9.9130   48.2447  131.6989 C   0  0  0  0  0  0  0  0  0  0  0  0
   10.8985   48.7565  132.2790 O   0  0  0  0  0  0  0  0  0  0  0  0
    9.7947   46.8838  131.5646 C   0  0  0  0  0  0  0  0  0  0  0  0
   10.5522   45.7985  131.9368 C   0  0  0  0  0  0  0  0  0  0  0  0
   11.7534   45.7258  132.6093 C   0  0  0  0  0  0  0  0  0  0  0  0
   12.3255   44.5008  132.8703 C   0  0  0  0  0  0  0  0  0  0  0  0
   11.6589   43.3763  132.4393 C   0  0  0  0  0  0  0  0  0  0  0  0
   12.2188   42.1319  132.6925 O   0  0  0  0  0  0  0  0  0  0  0  0
   10.4570   43.4043  131.7643 C   0  0  0  0  0  0  0  0  0  0  0  0
    9.8976   44.6410  131.5109 C   0  0  0  0  0  0  0  0  0  0  0  0
    8.8045   45.0471  130.9159 O   0  0  0  0  0  0  0  0  0  0  0  0
    8.6963   46.3536  130.9200 C   0  0  0  0  0  0  0  0  0  0  0  0
    4.0595   49.5207  128.4680 H   0  0  0  0  0  0  0  0  0  0  0  0
   11.8045   41.2749  132.4166 H   0  0  0  0  0  0  0  0  0  0  0  0
  1  2  1  0  0  0
  2  3  2  0  0  0
  3  4  1  0  0  0
  4  5  2  0  0  0
  5  6  1  0  0  0
  6  7  2  0  0  0
  6  8  1  0  0  0
  8  9  1  0  0  0
  9 10  2  0  0  0
  9 11  1  0  0  0
 11 12  1  0  0  0
 12 13  2  0  0  0
 13 14  1  0  0  0
 14 15  2  0  0  0
 15 16  1  0  0  0
 15 17  1  0  0  0
 17 18  2  0  0  0
 18 19  1  0  0  0
 19 20  1  0  0  0
  7  2  1  0  0  0
 20 11  2  0  0  0
 20  5  1  0  0  0
 18 12  1  0  0  0
  1 21  1  0  0  0
 16 22  1  0  0  0
M  END
> <minimizedAffinity>
-8.24073

> <CNNscore>
0.6166768670

> <CNNaffinity>
6.8645424843

> <CNN_VS>
4.2332043648

> <CNNaffinity_variance>
0.3547748923

$$$$
[H]Oc1c([H])c([H])c2c(oc(=O)c3c2oc2c([H])c(O[H])c([H])c([H])c23)c1[H]


 22 25  0  0  0  0  0  0  0  0999 V2000
    6.4104   49.0738  127.5718 O   0  0  0  0  0  0  0  0  0  0  0  0
    7.0773   48.3606  128.5784 C   0  0  0  0  0  0  0  0  0  0  0  0
    7.0093   46.9826  128.6014 C   0  0  0  0  0  0  0  0  0  0  0  0
    7.6850   46.3380  129.6148 C   0  0  0  0  0  0  0  0  0  0  0  0
    8.4084   47.0188  130.5808 C   0  0  0  0  0  0  0  0  0  0  0  0
    8.4656   48.3996  130.5423 C   0  0  0  0  0  0  0  0  0  0  0  0
    7.7886   49.0791  129.5242 C   0  0  0  0  0  0  0  0  0  0  0  0
    9.1545   49.0625  131.4611 O   0  0  0  0  0  0  0  0  0  0  0  0
    9.8001   48.4343  132.4304 C   0  0  0  0  0  0  0  0  0  0  0  0
   10.4291   49.1294  133.2616 O   0  0  0  0  0  0  0  0  0  0  0  0
    9.7793   47.0647  132.5195 C   0  0  0  0  0  0  0  0  0  0  0  0
   10.3251   46.1354  133.3732 C   0  0  0  0  0  0  0  0  0  0  0  0
   11.1211   46.2933  134.4876 C   0  0  0  0  0  0  0  0  0  0  0  0
   11.5504   45.1903  135.1913 C   0  0  0  0  0  0  0  0  0  0  0  0
   11.1577   43.9499  134.7423 C   0  0  0  0  0  0  0  0  0  0  0  0
   11.5797   42.8253  135.4376 O   0  0  0  0  0  0  0  0  0  0  0  0
   10.3630   43.7476  133.6338 C   0  0  0  0  0  0  0  0  0  0  0  0
    9.9417   44.8645  132.9400 C   0  0  0  0  0  0  0  0  0  0  0  0
    9.2030   45.0574  131.8766 O   0  0  0  0  0  0  0  0  0  0  0  0
    9.0765   46.3298  131.5873 C   0  0  0  0  0  0  0  0  0  0  0  0
    5.8822   48.5773  126.8663 H   0  0  0  0  0  0  0  0  0  0  0  0
   11.3423   41.8978  135.1814 H   0  0  0  0  0  0  0  0  0  0  0  0
  1  2  1  0  0  0
  2  3  2  0  0  0
  3  4  1  0  0  0
  4  5  2  0  0  0
  5  6  1  0  0  0
  6  7  2  0  0  0
  6  8  1  0  0  0
  8  9  1  0  0  0
  9 10  2  0  0  0
  9 11  1  0  0  0
 11 12  1  0  0  0
 12 13  2  0  0  0
 13 14  1  0  0  0
 14 15  2  0  0  0
 15 16  1  0  0  0
 15 17  1  0  0  0
 17 18  2  0  0  0
 18 19  1  0  0  0
 19 20  1  0  0  0
  7  2  1  0  0  0
 20 11  2  0  0  0
 20  5  1  0  0  0
 18 12  1  0  0  0
  1 21  1  0  0  0
 16 22  1  0  0  0
M  END
> <minimizedAffinity>
-3.33642

> <CNNscore>
0.4579438269

> <CNNaffinity>
6.5674438477

> <CNN_VS>
3.0075204372

> <CNNaffinity_variance>
0.7286866903

$$$$
[H]Oc1c([H])c([H])c2c(oc(=O)c3c2oc2c([H])c(O[H])c([H])c([H])c23)c1[H]


 22 25  0  0  0  0  0  0  0  0999 V2000
   10.6262   44.9680  126.2039 O   0  0  0  0  0  0  0  0  0  0  0  0
   10.5569   45.0128  127.6039 C   0  0  0  0  0  0  0  0  0  0  0  0
   11.0529   43.9621  128.3482 C   0  0  0  0  0  0  0  0  0  0  0  0
   10.9564   44.0638  129.7191 C   0  0  0  0  0  0  0  0  0  0  0  0
   10.3911   45.1613  130.3484 C   0  0  0  0  0  0  0  0  0  0  0  0
    9.8993   46.2050  129.5868 C   0  0  0  0  0  0  0  0  0  0  0  0
    9.9845   46.1274  128.1927 C   0  0  0  0  0  0  0  0  0  0  0  0
    9.3561   47.2607  130.1773 O   0  0  0  0  0  0  0  0  0  0  0  0
    9.2680   47.3490  131.4946 C   0  0  0  0  0  0  0  0  0  0  0  0
    8.7416   48.3777  131.9789 O   0  0  0  0  0  0  0  0  0  0  0  0
    9.7392   46.3438  132.3020 C   0  0  0  0  0  0  0  0  0  0  0  0
    9.7990   46.1312  133.6590 C   0  0  0  0  0  0  0  0  0  0  0  0
    9.3762   46.9126  134.7131 C   0  0  0  0  0  0  0  0  0  0  0  0
    9.5487   46.4771  136.0080 C   0  0  0  0  0  0  0  0  0  0  0  0
   10.1490   45.2533  136.1988 C   0  0  0  0  0  0  0  0  0  0  0  0
   10.3320   44.7961  137.4964 O   0  0  0  0  0  0  0  0  0  0  0  0
   10.5860   44.4411  135.1739 C   0  0  0  0  0  0  0  0  0  0  0  0
   10.4053   44.8933  133.8819 C   0  0  0  0  0  0  0  0  0  0  0  0
   10.6832   44.4131  132.6962 O   0  0  0  0  0  0  0  0  0  0  0  0
   10.3131   45.2246  131.7355 C   0  0  0  0  0  0  0  0  0  0  0  0
   11.0387   44.1671  125.7440 H   0  0  0  0  0  0  0  0  0  0  0  0
   10.7549   43.9282  137.7203 H   0  0  0  0  0  0  0  0  0  0  0  0
  1  2  1  0  0  0
  2  3  2  0  0  0
  3  4  1  0  0  0
  4  5  2  0  0  0
  5  6  1  0  0  0
  6  7  2  0  0  0
  6  8  1  0  0  0
  8  9  1  0  0  0
  9 10  2  0  0  0
  9 11  1  0  0  0
 11 12  1  0  0  0
 12 13  2  0  0  0
 13 14  1  0  0  0
 14 15  2  0  0  0
 15 16  1  0  0  0
 15 17  1  0  0  0
 17 18  2  0  0  0
 18 19  1  0  0  0
 19 20  1  0  0  0
  7  2  1  0  0  0
 20 11  2  0  0  0
 20  5  1  0  0  0
 18 12  1  0  0  0
  1 21  1  0  0  0
 16 22  1  0  0  0
M  END
> <minimizedAffinity>
0.75498

> <CNNscore>
0.3956934810

> <CNNaffinity>
6.2613539696

> <CNN_VS>
2.4775769711

> <CNNaffinity_variance>
1.1310069561

$$$$
[H]Oc1c([H])c([H])c2c(oc(=O)c3c2oc2c([H])c(O[H])c([H])c([H])c23)c1[H]


 22 25  0  0  0  0  0  0  0  0999 V2000
    6.8482   49.0332  127.6817 O   0  0  0  0  0  0  0  0  0  0  0  0
    7.5208   48.2971  128.6678 C   0  0  0  0  0  0  0  0  0  0  0  0
    7.1270   48.3988  129.9864 C   0  0  0  0  0  0  0  0  0  0  0  0
    7.8260   47.6514  130.9093 C   0  0  0  0  0  0  0  0  0  0  0  0
    8.8817   46.8262  130.5563 C   0  0  0  0  0  0  0  0  0  0  0  0
    9.2627   46.7366  129.2304 C   0  0  0  0  0  0  0  0  0  0  0  0
    8.5699   47.4847  128.2727 C   0  0  0  0  0  0  0  0  0  0  0  0
   10.2713   45.9504  128.8800 O   0  0  0  0  0  0  0  0  0  0  0  0
   10.9365   45.2366  129.7739 C   0  0  0  0  0  0  0  0  0  0  0  0
   11.8777   44.5171  129.3661 O   0  0  0  0  0  0  0  0  0  0  0  0
   10.6034   45.2851  131.1046 C   0  0  0  0  0  0  0  0  0  0  0  0
   11.0763   44.6891  132.2498 C   0  0  0  0  0  0  0  0  0  0  0  0
   12.1055   43.7918  132.4397 C   0  0  0  0  0  0  0  0  0  0  0  0
   12.3940   43.3298  133.7044 C   0  0  0  0  0  0  0  0  0  0  0  0
   11.6257   43.7938  134.7479 C   0  0  0  0  0  0  0  0  0  0  0  0
   11.9004   43.3403  136.0306 O   0  0  0  0  0  0  0  0  0  0  0  0
   10.5884   44.6903  134.6019 C   0  0  0  0  0  0  0  0  0  0  0  0
   10.3128   45.1431  133.3270 C   0  0  0  0  0  0  0  0  0  0  0  0
    9.4338   45.9695  132.8187 O   0  0  0  0  0  0  0  0  0  0  0  0
    9.5613   46.0882  131.5195 C   0  0  0  0  0  0  0  0  0  0  0  0
    6.0775   49.6358  127.9388 H   0  0  0  0  0  0  0  0  0  0  0  0
   11.3960   43.6241  136.8351 H   0  0  0  0  0  0  0  0  0  0  0  0
  1  2  1  0  0  0
  2  3  2  0  0  0
  3  4  1  0  0  0
  4  5  2  0  0  0
  5  6  1  0  0  0
  6  7  2  0  0  0
  6  8  1  0  0  0
  8  9  1  0  0  0
  9 10  2  0  0  0
  9 11  1  0  0  0
 11 12  1  0  0  0
 12 13  2  0  0  0
 13 14  1  0  0  0
 14 15  2  0  0  0
 15 16  1  0  0  0
 15 17  1  0  0  0
 17 18  2  0  0  0
 18 19  1  0  0  0
 19 20  1  0  0  0
  7  2  1  0  0  0
 20 11  2  0  0  0
 20  5  1  0  0  0
 18 12  1  0  0  0
  1 21  1  0  0  0
 16 22  1  0  0  0
M  END
> <minimizedAffinity>
-5.22489

> <CNNscore>
0.3662792742

> <CNNaffinity>
6.4479203224

> <CNN_VS>
2.3617396355

> <CNNaffinity_variance>
0.7427237630

$$$$
[H]OC(=O)C([H])([H])[C@@]([H])(/C([H])=C(\[H])C(=O)c1c([H])c([H])c([H])c([H])c1[H])C([H])([H])C([H])([H])c1c([H])c([H])c(Cl)c([H])c1[H]


 25 26  0  0  0  0  0  0  0  0999 V2000
    8.2975   48.5766  130.1809 C   0  0  0  0  0  0  0  0  0  0  0  0
    8.6810   47.1896  129.8668 C   0  0  0  0  0  0  0  0  0  0  0  0
    9.8623   46.7751  129.4650 C   0  0  0  0  0  0  0  0  0  0  0  0
   10.0963   45.3504  129.1910 C   0  0  0  0  0  0  0  0  0  0  0  0
   10.3301   44.9663  128.0022 O   0  0  0  0  0  0  0  0  0  0  0  0
   10.0725   44.3414  130.2366 C   0  0  0  0  0  0  0  0  0  0  0  0
   11.2202   43.6535  130.5681 C   0  0  0  0  0  0  0  0  0  0  0  0
   11.2479   42.6863  131.5526 C   0  0  0  0  0  0  0  0  0  0  0  0
   10.1042   42.3665  132.2549 C   0  0  0  0  0  0  0  0  0  0  0  0
    8.9515   43.0358  131.9441 C   0  0  0  0  0  0  0  0  0  0  0  0
    8.9380   44.0154  130.9421 C   0  0  0  0  0  0  0  0  0  0  0  0
    7.7118   49.3411  129.0583 C   0  0  0  0  0  0  0  0  0  0  0  0
    6.9936   51.6283  128.5429 O   0  0  0  0  0  0  0  0  0  0  0  0
    6.9217   50.5229  129.3740 C   0  0  0  0  0  0  0  0  0  0  0  0
    6.1758   50.5843  130.3694 O   0  0  0  0  0  0  0  0  0  0  0  0
    7.1302   52.5721  128.8419 H   0  0  0  0  0  0  0  0  0  0  0  0
    9.3294   49.3009  130.9758 C   0  0  0  0  0  0  0  0  0  0  0  0
    9.2125   49.2127  132.4573 C   0  0  0  0  0  0  0  0  0  0  0  0
    9.6305   47.9498  133.0651 C   0  0  0  0  0  0  0  0  0  0  0  0
   10.8775   47.4330  132.7187 C   0  0  0  0  0  0  0  0  0  0  0  0
   11.3788   46.2562  133.2324 C   0  0  0  0  0  0  0  0  0  0  0  0
   10.6029   45.5442  134.1443 C   0  0  0  0  0  0  0  0  0  0  0  0
   11.2229   44.0441  134.8093 Cl  0  0  0  0  0  0  0  0  0  0  0  0
    9.3743   46.0094  134.5154 C   0  0  0  0  0  0  0  0  0  0  0  0
    8.9078   47.2099  133.9666 C   0  0  0  0  0  0  0  0  0  0  0  0
 13 14  1  0  0  0
 14 15  2  0  0  0
 14 12  1  0  0  0
 12  1  1  0  0  0
  1 17  1  0  0  0
 17 18  1  0  0  0
 18 19  1  0  0  0
 19 20  2  0  0  0
 20 21  1  0  0  0
 21 22  2  0  0  0
 22 23  1  0  0  0
 22 24  1  0  0  0
 24 25  2  0  0  0
  1  2  1  0  0  0
  2  3  2  0  0  0
  3  4  1  0  0  0
  4  5  2  0  0  0
  4  6  1  0  0  0
  6  7  2  0  0  0
  7  8  1  0  0  0
  8  9  2  0  0  0
  9 10  1  0  0  0
 10 11  2  0  0  0
 25 19  1  0  0  0
 11  6  1  0  0  0
 13 16  1  0  0  0
M  END
> <minimizedAffinity>
-8.74548

> <CNNscore>
0.6167590618

> <CNNaffinity>
7.5013260841

> <CNN_VS>
4.6265106201

> <CNNaffinity_variance>
0.0334289894

$$$$
[H]OC(=O)C([H])([H])[C@@]([H])(/C([H])=C(\[H])C(=O)c1c([H])c([H])c([H])c([H])c1[H])C([H])([H])C([H])([H])c1c([H])c([H])c(Cl)c([H])c1[H]


 25 26  0  0  0  0  0  0  0  0999 V2000
    8.6116   48.8916  130.3226 C   0  0  0  0  0  0  0  0  0  0  0  0
    8.7720   47.9989  131.4831 C   0  0  0  0  0  0  0  0  0  0  0  0
    9.4215   48.2673  132.5943 C   0  0  0  0  0  0  0  0  0  0  0  0
    9.4936   47.2709  133.6721 C   0  0  0  0  0  0  0  0  0  0  0  0
    8.6997   47.3524  134.6613 O   0  0  0  0  0  0  0  0  0  0  0  0
   10.4488   46.1757  133.6586 C   0  0  0  0  0  0  0  0  0  0  0  0
   11.5015   46.1796  132.7686 C   0  0  0  0  0  0  0  0  0  0  0  0
   12.4336   45.1628  132.7166 C   0  0  0  0  0  0  0  0  0  0  0  0
   12.3435   44.0835  133.5714 C   0  0  0  0  0  0  0  0  0  0  0  0
   11.3067   44.0565  134.4645 C   0  0  0  0  0  0  0  0  0  0  0  0
   10.3676   45.0958  134.5060 C   0  0  0  0  0  0  0  0  0  0  0  0
    7.8947   50.1570  130.5916 C   0  0  0  0  0  0  0  0  0  0  0  0
    7.0474   51.3766  128.6404 O   0  0  0  0  0  0  0  0  0  0  0  0
    6.8003   50.5253  129.7043 C   0  0  0  0  0  0  0  0  0  0  0  0
    5.6391   50.1037  129.8615 O   0  0  0  0  0  0  0  0  0  0  0  0
    6.5046   52.1812  128.4019 H   0  0  0  0  0  0  0  0  0  0  0  0
    8.1923   48.1715  129.0868 C   0  0  0  0  0  0  0  0  0  0  0  0
    7.5242   46.8548  129.2770 C   0  0  0  0  0  0  0  0  0  0  0  0
    8.3805   45.7519  129.7121 C   0  0  0  0  0  0  0  0  0  0  0  0
    7.9243   44.9302  130.7411 C   0  0  0  0  0  0  0  0  0  0  0  0
    8.6408   43.8582  131.2283 C   0  0  0  0  0  0  0  0  0  0  0  0
    9.8844   43.5783  130.6665 C   0  0  0  0  0  0  0  0  0  0  0  0
   10.8119   42.2184  131.2727 Cl  0  0  0  0  0  0  0  0  0  0  0  0
   10.3748   44.3540  129.6558 C   0  0  0  0  0  0  0  0  0  0  0  0
    9.6102   45.4321  129.1943 C   0  0  0  0  0  0  0  0  0  0  0  0
 13 14  1  0  0  0
 14 15  2  0  0  0
 14 12  1  0  0  0
 12  1  1  0  0  0
  1 17  1  0  0  0
 17 18  1  0  0  0
 18 19  1  0  0  0
 19 20  2  0  0  0
 20 21  1  0  0  0
 21 22  2  0  0  0
 22 23  1  0  0  0
 22 24  1  0  0  0
 24 25  2  0  0  0
  1  2  1  0  0  0
  2  3  2  0  0  0
  3  4  1  0  0  0
  4  5  2  0  0  0
  4  6  1  0  0  0
  6  7  2  0  0  0
  7  8  1  0  0  0
  8  9  2  0  0  0
  9 10  1  0  0  0
 10 11  2  0  0  0
 25 19  1  0  0  0
 11  6  1  0  0  0
 13 16  1  0  0  0
M  END
> <minimizedAffinity>
-8.74307

> <CNNscore>
0.6100359559

> <CNNaffinity>
7.3381376266

> <CNN_VS>
4.4765276909

> <CNNaffinity_variance>
0.0669907182

$$$$
[H]OC(=O)C([H])([H])[C@@]([H])(/C([H])=C(\[H])C(=O)c1c([H])c([H])c([H])c([H])c1[H])C([H])([H])C([H])([H])c1c([H])c([H])c(Cl)c([H])c1[H]


 25 26  0  0  0  0  0  0  0  0999 V2000
    8.3811   48.5167  130.1770 C   0  0  0  0  0  0  0  0  0  0  0  0
    8.8521   47.1583  129.8571 C   0  0  0  0  0  0  0  0  0  0  0  0
    8.2877   46.0276  130.2196 C   0  0  0  0  0  0  0  0  0  0  0  0
    8.8762   44.7416  129.8201 C   0  0  0  0  0  0  0  0  0  0  0  0
    8.3339   44.0594  128.8949 O   0  0  0  0  0  0  0  0  0  0  0  0
   10.0727   44.2040  130.4459 C   0  0  0  0  0  0  0  0  0  0  0  0
    9.9868   43.1326  131.3090 C   0  0  0  0  0  0  0  0  0  0  0  0
   11.0935   42.5874  131.9281 C   0  0  0  0  0  0  0  0  0  0  0  0
   12.3517   43.1059  131.7007 C   0  0  0  0  0  0  0  0  0  0  0  0
   12.4631   44.1702  130.8474 C   0  0  0  0  0  0  0  0  0  0  0  0
   11.3308   44.7137  130.2258 C   0  0  0  0  0  0  0  0  0  0  0  0
    7.6821   49.2192  129.0791 C   0  0  0  0  0  0  0  0  0  0  0  0
    7.0121   51.5220  128.5680 O   0  0  0  0  0  0  0  0  0  0  0  0
    6.9302   50.4227  129.4062 C   0  0  0  0  0  0  0  0  0  0  0  0
    6.2086   50.5080  130.4176 O   0  0  0  0  0  0  0  0  0  0  0  0
    7.1797   52.4633  128.8590 H   0  0  0  0  0  0  0  0  0  0  0  0
    9.3945   49.3276  130.9097 C   0  0  0  0  0  0  0  0  0  0  0  0
    9.3223   49.2995  132.3963 C   0  0  0  0  0  0  0  0  0  0  0  0
    9.6584   48.0280  133.0363 C   0  0  0  0  0  0  0  0  0  0  0  0
   10.9340   47.5052  132.8328 C   0  0  0  0  0  0  0  0  0  0  0  0
   11.3644   46.3200  133.3899 C   0  0  0  0  0  0  0  0  0  0  0  0
   10.4829   45.6057  134.1979 C   0  0  0  0  0  0  0  0  0  0  0  0
   11.0114   44.0950  134.9160 Cl  0  0  0  0  0  0  0  0  0  0  0  0
    9.2223   46.0766  134.4276 C   0  0  0  0  0  0  0  0  0  0  0  0
    8.8307   47.2854  133.8399 C   0  0  0  0  0  0  0  0  0  0  0  0
 13 14  1  0  0  0
 14 15  2  0  0  0
 14 12  1  0  0  0
 12  1  1  0  0  0
  1 17  1  0  0  0
 17 18  1  0  0  0
 18 19  1  0  0  0
 19 20  2  0  0  0
 20 21  1  0  0  0
 21 22  2  0  0  0
 22 23  1  0  0  0
 22 24  1  0  0  0
 24 25  2  0  0  0
  1  2  1  0  0  0
  2  3  2  0  0  0
  3  4  1  0  0  0
  4  5  2  0  0  0
  4  6  1  0  0  0
  6  7  2  0  0  0
  7  8  1  0  0  0
  8  9  2  0  0  0
  9 10  1  0  0  0
 10 11  2  0  0  0
 25 19  1  0  0  0
 11  6  1  0  0  0
 13 16  1  0  0  0
M  END
> <minimizedAffinity>
-8.74126

> <CNNscore>
0.4895781875

> <CNNaffinity>
7.3336076736

> <CNN_VS>
3.5903744698

> <CNNaffinity_variance>
0.0486307554

$$$$
[H]OC(=O)C([H])([H])[C@@]([H])(/C([H])=C(\[H])C(=O)c1c([H])c([H])c([H])c([H])c1[H])C([H])([H])C([H])([H])c1c([H])c([H])c(Cl)c([H])c1[H]


 25 26  0  0  0  0  0  0  0  0999 V2000
    8.6112   48.9845  130.1287 C   0  0  0  0  0  0  0  0  0  0  0  0
    9.5713   48.5408  131.1538 C   0  0  0  0  0  0  0  0  0  0  0  0
    9.2823   48.0773  132.3497 C   0  0  0  0  0  0  0  0  0  0  0  0
   10.3549   47.6692  133.2677 C   0  0  0  0  0  0  0  0  0  0  0  0
   10.7485   48.4689  134.1738 O   0  0  0  0  0  0  0  0  0  0  0  0
   10.9983   46.3687  133.1857 C   0  0  0  0  0  0  0  0  0  0  0  0
   10.8320   45.4437  134.1942 C   0  0  0  0  0  0  0  0  0  0  0  0
   11.4226   44.1965  134.1625 C   0  0  0  0  0  0  0  0  0  0  0  0
   12.2172   43.8229  133.0982 C   0  0  0  0  0  0  0  0  0  0  0  0
   12.3978   44.7242  132.0841 C   0  0  0  0  0  0  0  0  0  0  0  0
   11.7920   45.9870  132.1296 C   0  0  0  0  0  0  0  0  0  0  0  0
    7.5222   49.8580  130.6172 C   0  0  0  0  0  0  0  0  0  0  0  0
    6.9972   51.3013  128.7057 O   0  0  0  0  0  0  0  0  0  0  0  0
    6.5712   50.3755  129.6433 C   0  0  0  0  0  0  0  0  0  0  0  0
    5.3785   50.0183  129.6158 O   0  0  0  0  0  0  0  0  0  0  0  0
    6.5331   52.1578  128.4825 H   0  0  0  0  0  0  0  0  0  0  0  0
    8.1866   47.8871  129.2139 C   0  0  0  0  0  0  0  0  0  0  0  0
    7.3320   46.8206  129.8042 C   0  0  0  0  0  0  0  0  0  0  0  0
    8.0205   45.6041  130.2344 C   0  0  0  0  0  0  0  0  0  0  0  0
    8.9242   45.0124  129.3540 C   0  0  0  0  0  0  0  0  0  0  0  0
    9.6351   43.8698  129.6530 C   0  0  0  0  0  0  0  0  0  0  0  0
    9.4435   43.2733  130.8971 C   0  0  0  0  0  0  0  0  0  0  0  0
   10.3386   41.8186  131.2967 Cl  0  0  0  0  0  0  0  0  0  0  0  0
    8.5690   43.8153  131.7944 C   0  0  0  0  0  0  0  0  0  0  0  0
    7.8698   44.9769  131.4453 C   0  0  0  0  0  0  0  0  0  0  0  0
 13 14  1  0  0  0
 14 15  2  0  0  0
 14 12  1  0  0  0
 12  1  1  0  0  0
  1 17  1  0  0  0
 17 18  1  0  0  0
 18 19  1  0  0  0
 19 20  2  0  0  0
 20 21  1  0  0  0
 21 22  2  0  0  0
 22 23  1  0  0  0
 22 24  1  0  0  0
 24 25  2  0  0  0
  1  2  1  0  0  0
  2  3  2  0  0  0
  3  4  1  0  0  0
  4  5  2  0  0  0
  4  6  1  0  0  0
  6  7  2  0  0  0
  7  8  1  0  0  0
  8  9  2  0  0  0
  9 10  1  0  0  0
 10 11  2  0  0  0
 25 19  1  0  0  0
 11  6  1  0  0  0
 13 16  1  0  0  0
M  END
> <minimizedAffinity>
-8.14578

> <CNNscore>
0.4326091707

> <CNNaffinity>
7.1135244370

> <CNN_VS>
3.0773758888

> <CNNaffinity_variance>
0.1257061362

$$$$
[H]OC(=O)C([H])([H])[C@@]([H])(/C([H])=C(\[H])C(=O)c1c([H])c([H])c([H])c([H])c1[H])C([H])([H])C([H])([H])c1c([H])c([H])c(Cl)c([H])c1[H]


 25 26  0  0  0  0  0  0  0  0999 V2000
   10.5053   48.4368  132.6250 C   0  0  0  0  0  0  0  0  0  0  0  0
    9.5156   48.6237  131.5503 C   0  0  0  0  0  0  0  0  0  0  0  0
    8.7868   49.6964  131.3342 C   0  0  0  0  0  0  0  0  0  0  0  0
    7.8372   49.7362  130.2133 C   0  0  0  0  0  0  0  0  0  0  0  0
    7.6507   50.8237  129.5822 O   0  0  0  0  0  0  0  0  0  0  0  0
    7.0877   48.5672  129.7847 C   0  0  0  0  0  0  0  0  0  0  0  0
    6.3202   48.6119  128.6405 C   0  0  0  0  0  0  0  0  0  0  0  0
    5.5904   47.5290  128.1933 C   0  0  0  0  0  0  0  0  0  0  0  0
    5.6029   46.3380  128.8898 C   0  0  0  0  0  0  0  0  0  0  0  0
    6.3576   46.2685  130.0295 C   0  0  0  0  0  0  0  0  0  0  0  0
    7.0936   47.3760  130.4718 C   0  0  0  0  0  0  0  0  0  0  0  0
   10.7193   47.0370  133.0521 C   0  0  0  0  0  0  0  0  0  0  0  0
    9.7337   45.8468  134.9559 O   0  0  0  0  0  0  0  0  0  0  0  0
    9.6031   46.3305  133.6649 C   0  0  0  0  0  0  0  0  0  0  0  0
    8.5241   46.1400  133.0729 O   0  0  0  0  0  0  0  0  0  0  0  0
    9.4961   44.9240  135.2574 H   0  0  0  0  0  0  0  0  0  0  0  0
   10.3588   49.4255  133.7307 C   0  0  0  0  0  0  0  0  0  0  0  0
   10.0027   50.8165  133.3380 C   0  0  0  0  0  0  0  0  0  0  0  0
    9.3334   51.6250  134.3566 C   0  0  0  0  0  0  0  0  0  0  0  0
    9.8352   52.8977  134.6219 C   0  0  0  0  0  0  0  0  0  0  0  0
    9.2831   53.7502  135.5539 C   0  0  0  0  0  0  0  0  0  0  0  0
    8.1670   53.3219  136.2689 C   0  0  0  0  0  0  0  0  0  0  0  0
    7.4499   54.3919  137.4596 Cl  0  0  0  0  0  0  0  0  0  0  0  0
    7.6382   52.0834  136.0449 C   0  0  0  0  0  0  0  0  0  0  0  0
    8.2337   51.2530  135.0879 C   0  0  0  0  0  0  0  0  0  0  0  0
 13 14  1  0  0  0
 14 15  2  0  0  0
 14 12  1  0  0  0
 12  1  1  0  0  0
  1 17  1  0  0  0
 17 18  1  0  0  0
 18 19  1  0  0  0
 19 20  2  0  0  0
 20 21  1  0  0  0
 21 22  2  0  0  0
 22 23  1  0  0  0
 22 24  1  0  0  0
 24 25  2  0  0  0
  1  2  1  0  0  0
  2  3  2  0  0  0
  3  4  1  0  0  0
  4  5  2  0  0  0
  4  6  1  0  0  0
  6  7  2  0  0  0
  7  8  1  0  0  0
  8  9  2  0  0  0
  9 10  1  0  0  0
 10 11  2  0  0  0
 25 19  1  0  0  0
 11  6  1  0  0  0
 13 16  1  0  0  0
M  END
> <minimizedAffinity>
17.13206

> <CNNscore>
0.4183659256

> <CNNaffinity>
6.2116537094

> <CNN_VS>
2.5987441540

> <CNNaffinity_variance>
1.0192724466

$$$$
[H]OC(=O)C([H])([H])[C@@]([H])(/C([H])=C(\[H])C(=O)c1c([H])c([H])c([H])c([H])c1[H])C([H])([H])C([H])([H])c1c([H])c([H])c(Cl)c([H])c1[H]


 25 26  0  0  0  0  0  0  0  0999 V2000
    8.0687   48.6847  130.5703 C   0  0  0  0  0  0  0  0  0  0  0  0
    8.4842   47.2718  130.5510 C   0  0  0  0  0  0  0  0  0  0  0  0
    7.8586   46.2632  131.1166 C   0  0  0  0  0  0  0  0  0  0  0  0
    8.3969   44.9001  131.0087 C   0  0  0  0  0  0  0  0  0  0  0  0
    8.0514   44.0161  131.8542 O   0  0  0  0  0  0  0  0  0  0  0  0
    9.3236   44.5087  129.9598 C   0  0  0  0  0  0  0  0  0  0  0  0
   10.6268   44.9577  129.9775 C   0  0  0  0  0  0  0  0  0  0  0  0
   11.5436   44.6147  129.0043 C   0  0  0  0  0  0  0  0  0  0  0  0
   11.1812   43.7930  127.9569 C   0  0  0  0  0  0  0  0  0  0  0  0
    9.8924   43.3340  127.9169 C   0  0  0  0  0  0  0  0  0  0  0  0
    8.9722   43.6905  128.9120 C   0  0  0  0  0  0  0  0  0  0  0  0
    7.4492   49.1795  129.3217 C   0  0  0  0  0  0  0  0  0  0  0  0
    5.7065   47.7713  128.3254 O   0  0  0  0  0  0  0  0  0  0  0  0
    6.0441   48.8766  129.0883 C   0  0  0  0  0  0  0  0  0  0  0  0
    5.1222   49.5752  129.5498 O   0  0  0  0  0  0  0  0  0  0  0  0
    5.0489   47.7637  127.5728 H   0  0  0  0  0  0  0  0  0  0  0  0
    9.0912   49.5848  131.1750 C   0  0  0  0  0  0  0  0  0  0  0  0
    9.3329   49.4322  132.6360 C   0  0  0  0  0  0  0  0  0  0  0  0
    9.8491   48.1359  133.0743 C   0  0  0  0  0  0  0  0  0  0  0  0
    9.1330   47.4350  134.0427 C   0  0  0  0  0  0  0  0  0  0  0  0
    9.5190   46.2033  134.5264 C   0  0  0  0  0  0  0  0  0  0  0  0
   10.6832   45.6262  134.0244 C   0  0  0  0  0  0  0  0  0  0  0  0
   11.1915   44.0593  134.6272 Cl  0  0  0  0  0  0  0  0  0  0  0  0
   11.4194   46.2735  133.0743 C   0  0  0  0  0  0  0  0  0  0  0  0
   10.9869   47.5229  132.6138 C   0  0  0  0  0  0  0  0  0  0  0  0
 13 14  1  0  0  0
 14 15  2  0  0  0
 14 12  1  0  0  0
 12  1  1  0  0  0
  1 17  1  0  0  0
 17 18  1  0  0  0
 18 19  1  0  0  0
 19 20  2  0  0  0
 20 21  1  0  0  0
 21 22  2  0  0  0
 22 23  1  0  0  0
 22 24  1  0  0  0
 24 25  2  0  0  0
  1  2  1  0  0  0
  2  3  2  0  0  0
  3  4  1  0  0  0
  4  5  2  0  0  0
  4  6  1  0  0  0
  6  7  2  0  0  0
  7  8  1  0  0  0
  8  9  2  0  0  0
  9 10  1  0  0  0
 10 11  2  0  0  0
 25 19  1  0  0  0
 11  6  1  0  0  0
 13 16  1  0  0  0
M  END
> <minimizedAffinity>
-8.22657

> <CNNscore>
0.3360062242

> <CNNaffinity>
6.9122076035

> <CNN_VS>
2.3225448132

> <CNNaffinity_variance>
0.0398065560

$$$$
[H]OC(=O)C([H])([H])[C@@]([H])(/C([H])=C(\[H])C(=O)c1c([H])c([H])c([H])c([H])c1[H])C([H])([H])C([H])([H])c1c([H])c([H])c(Cl)c([H])c1[H]


 25 26  0  0  0  0  0  0  0  0999 V2000
    7.9615   48.2860  129.4512 C   0  0  0  0  0  0  0  0  0  0  0  0
    8.5118   48.2570  130.8171 C   0  0  0  0  0  0  0  0  0  0  0  0
    9.5589   48.9212  131.2542 C   0  0  0  0  0  0  0  0  0  0  0  0
    9.9899   48.7921  132.6532 C   0  0  0  0  0  0  0  0  0  0  0  0
   10.2261   49.8353  133.3399 O   0  0  0  0  0  0  0  0  0  0  0  0
   10.1613   47.5021  133.3001 C   0  0  0  0  0  0  0  0  0  0  0  0
   11.2415   46.7042  132.9891 C   0  0  0  0  0  0  0  0  0  0  0  0
   11.4474   45.4716  133.5753 C   0  0  0  0  0  0  0  0  0  0  0  0
   10.5610   44.9836  134.5134 C   0  0  0  0  0  0  0  0  0  0  0  0
    9.4801   45.7574  134.8392 C   0  0  0  0  0  0  0  0  0  0  0  0
    9.2837   47.0069  134.2358 C   0  0  0  0  0  0  0  0  0  0  0  0
    6.6301   48.9164  129.3184 C   0  0  0  0  0  0  0  0  0  0  0  0
    7.0375   51.2491  128.6818 O   0  0  0  0  0  0  0  0  0  0  0  0
    6.5182   50.3426  129.5908 C   0  0  0  0  0  0  0  0  0  0  0  0
    5.9699   50.7880  130.6164 O   0  0  0  0  0  0  0  0  0  0  0  0
    7.6259   52.0250  128.9067 H   0  0  0  0  0  0  0  0  0  0  0  0
    8.1304   46.9942  128.7272 C   0  0  0  0  0  0  0  0  0  0  0  0
    9.5178   46.4646  128.6239 C   0  0  0  0  0  0  0  0  0  0  0  0
    9.8417   45.3271  129.4843 C   0  0  0  0  0  0  0  0  0  0  0  0
   11.1567   44.8659  129.4990 C   0  0  0  0  0  0  0  0  0  0  0  0
   11.5793   43.8076  130.2746 C   0  0  0  0  0  0  0  0  0  0  0  0
   10.6481   43.1636  131.0861 C   0  0  0  0  0  0  0  0  0  0  0  0
   11.1660   41.8145  132.0804 Cl  0  0  0  0  0  0  0  0  0  0  0  0
    9.3476   43.5785  131.1067 C   0  0  0  0  0  0  0  0  0  0  0  0
    8.9659   44.6582  130.3015 C   0  0  0  0  0  0  0  0  0  0  0  0
 13 14  1  0  0  0
 14 15  2  0  0  0
 14 12  1  0  0  0
 12  1  1  0  0  0
  1 17  1  0  0  0
 17 18  1  0  0  0
 18 19  1  0  0  0
 19 20  2  0  0  0
 20 21  1  0  0  0
 21 22  2  0  0  0
 22 23  1  0  0  0
 22 24  1  0  0  0
 24 25  2  0  0  0
  1  2  1  0  0  0
  2  3  2  0  0  0
  3  4  1  0  0  0
  4  5  2  0  0  0
  4  6  1  0  0  0
  6  7  2  0  0  0
  7  8  1  0  0  0
  8  9  2  0  0  0
  9 10  1  0  0  0
 10 11  2  0  0  0
 25 19  1  0  0  0
 11  6  1  0  0  0
 13 16  1  0  0  0
M  END
> <minimizedAffinity>
-7.84464

> <CNNscore>
0.2497814447

> <CNNaffinity>
6.9970293045

> <CNN_VS>
1.7477281094

> <CNNaffinity_variance>
0.0447953455

$$$$
[H]OC(=O)C([H])([H])[C@@]([H])(/C([H])=C(\[H])C(=O)c1c([H])c([H])c([H])c([H])c1[H])C([H])([H])C([H])([H])c1c([H])c([H])c(Cl)c([H])c1[H]


 25 26  0  0  0  0  0  0  0  0999 V2000
    7.4448   47.3625  130.1405 C   0  0  0  0  0  0  0  0  0  0  0  0
    8.5354   46.4847  129.6830 C   0  0  0  0  0  0  0  0  0  0  0  0
    9.4603   46.7809  128.7967 C   0  0  0  0  0  0  0  0  0  0  0  0
   10.4916   45.7961  128.4414 C   0  0  0  0  0  0  0  0  0  0  0  0
   10.5475   45.3402  127.2563 O   0  0  0  0  0  0  0  0  0  0  0  0
   11.4692   45.3106  129.4009 C   0  0  0  0  0  0  0  0  0  0  0  0
   11.3570   45.6355  130.7358 C   0  0  0  0  0  0  0  0  0  0  0  0
   12.2600   45.1997  131.6845 C   0  0  0  0  0  0  0  0  0  0  0  0
   13.3297   44.4066  131.3234 C   0  0  0  0  0  0  0  0  0  0  0  0
   13.4631   44.0703  130.0034 C   0  0  0  0  0  0  0  0  0  0  0  0
   12.5386   44.5201  129.0510 C   0  0  0  0  0  0  0  0  0  0  0  0
    6.7602   48.1286  129.0765 C   0  0  0  0  0  0  0  0  0  0  0  0
    5.5901   50.2671  129.3415 O   0  0  0  0  0  0  0  0  0  0  0  0
    6.7799   49.5823  129.1594 C   0  0  0  0  0  0  0  0  0  0  0  0
    7.8311   50.2444  129.0731 O   0  0  0  0  0  0  0  0  0  0  0  0
    5.2889   51.0594  128.8120 H   0  0  0  0  0  0  0  0  0  0  0  0
    7.7969   48.1417  131.3613 C   0  0  0  0  0  0  0  0  0  0  0  0
    8.9799   47.6722  132.1334 C   0  0  0  0  0  0  0  0  0  0  0  0
    8.9723   46.2666  132.5375 C   0  0  0  0  0  0  0  0  0  0  0  0
    9.7033   45.9019  133.6664 C   0  0  0  0  0  0  0  0  0  0  0  0
    9.7642   44.6104  134.1445 C   0  0  0  0  0  0  0  0  0  0  0  0
    9.0608   43.6165  133.4680 C   0  0  0  0  0  0  0  0  0  0  0  0
    9.1256   41.9667  134.0603 Cl  0  0  0  0  0  0  0  0  0  0  0  0
    8.3297   43.9238  132.3568 C   0  0  0  0  0  0  0  0  0  0  0  0
    8.2983   45.2500  131.9093 C   0  0  0  0  0  0  0  0  0  0  0  0
 13 14  1  0  0  0
 14 15  2  0  0  0
 14 12  1  0  0  0
 12  1  1  0  0  0
  1 17  1  0  0  0
 17 18  1  0  0  0
 18 19  1  0  0  0
 19 20  2  0  0  0
 20 21  1  0  0  0
 21 22  2  0  0  0
 22 23  1  0  0  0
 22 24  1  0  0  0
 24 25  2  0  0  0
  1  2  1  0  0  0
  2  3  2  0  0  0
  3  4  1  0  0  0
  4  5  2  0  0  0
  4  6  1  0  0  0
  6  7  2  0  0  0
  7  8  1  0  0  0
  8  9  2  0  0  0
  9 10  1  0  0  0
 10 11  2  0  0  0
 25 19  1  0  0  0
 11  6  1  0  0  0
 13 16  1  0  0  0
M  END
> <minimizedAffinity>
-4.30019

> <CNNscore>
0.2312648594

> <CNNaffinity>
6.8173828125

> <CNN_VS>
1.5766210556

> <CNNaffinity_variance>
0.2061645240

$$$$
[H]OC(=O)C([H])([H])[C@@]([H])(/C([H])=C(\[H])C(=O)c1c([H])c([H])c([H])c([H])c1[H])C([H])([H])C([H])([H])c1c([H])c([H])c(Cl)c([H])c1[H]


 25 26  0  0  0  0  0  0  0  0999 V2000
   11.5525   46.9550  132.1879 C   0  0  0  0  0  0  0  0  0  0  0  0
   10.8929   45.8417  131.4844 C   0  0  0  0  0  0  0  0  0  0  0  0
   11.3300   45.2263  130.4080 C   0  0  0  0  0  0  0  0  0  0  0  0
   10.5583   44.1239  129.8172 C   0  0  0  0  0  0  0  0  0  0  0  0
   10.7594   43.7899  128.6074 O   0  0  0  0  0  0  0  0  0  0  0  0
    9.5570   43.3840  130.5668 C   0  0  0  0  0  0  0  0  0  0  0  0
    8.6830   42.5389  129.9170 C   0  0  0  0  0  0  0  0  0  0  0  0
    7.7149   41.8159  130.5844 C   0  0  0  0  0  0  0  0  0  0  0  0
    7.5844   41.9149  131.9543 C   0  0  0  0  0  0  0  0  0  0  0  0
    8.4407   42.7478  132.6225 C   0  0  0  0  0  0  0  0  0  0  0  0
    9.4188   43.4760  131.9319 C   0  0  0  0  0  0  0  0  0  0  0  0
   12.3899   46.5661  133.3434 C   0  0  0  0  0  0  0  0  0  0  0  0
   12.9824   44.2119  133.6885 O   0  0  0  0  0  0  0  0  0  0  0  0
   12.1386   45.2741  133.9665 C   0  0  0  0  0  0  0  0  0  0  0  0
   11.1879   45.0800  134.7470 O   0  0  0  0  0  0  0  0  0  0  0  0
   12.6918   43.2911  133.4305 H   0  0  0  0  0  0  0  0  0  0  0  0
   10.6476   48.1166  132.4185 C   0  0  0  0  0  0  0  0  0  0  0  0
   10.4694   49.0589  131.2799 C   0  0  0  0  0  0  0  0  0  0  0  0
    9.1167   49.1659  130.7343 C   0  0  0  0  0  0  0  0  0  0  0  0
    8.6494   48.1323  129.9248 C   0  0  0  0  0  0  0  0  0  0  0  0
    7.3912   48.1212  129.3617 C   0  0  0  0  0  0  0  0  0  0  0  0
    6.5405   49.1954  129.6121 C   0  0  0  0  0  0  0  0  0  0  0  0
    4.9354   49.2001  128.9046 Cl  0  0  0  0  0  0  0  0  0  0  0  0
    6.9522   50.2321  130.3992 C   0  0  0  0  0  0  0  0  0  0  0  0
    8.2392   50.1985  130.9491 C   0  0  0  0  0  0  0  0  0  0  0  0
 13 14  1  0  0  0
 14 15  2  0  0  0
 14 12  1  0  0  0
 12  1  1  0  0  0
  1 17  1  0  0  0
 17 18  1  0  0  0
 18 19  1  0  0  0
 19 20  2  0  0  0
 20 21  1  0  0  0
 21 22  2  0  0  0
 22 23  1  0  0  0
 22 24  1  0  0  0
 24 25  2  0  0  0
  1  2  1  0  0  0
  2  3  2  0  0  0
  3  4  1  0  0  0
  4  5  2  0  0  0
  4  6  1  0  0  0
  6  7  2  0  0  0
  7  8  1  0  0  0
  8  9  2  0  0  0
  9 10  1  0  0  0
 10 11  2  0  0  0
 25 19  1  0  0  0
 11  6  1  0  0  0
 13 16  1  0  0  0
M  END
> <minimizedAffinity>
-2.98113

> <CNNscore>
0.2026064694

> <CNNaffinity>
6.7215857506

> <CNN_VS>
1.3618367910

> <CNNaffinity_variance>
0.7658734322

$$$$
[H]Oc1c([H])c([H])c2c(oc3c4c([H])c([H])c([H])c([H])c4n(C([H])([H])c4c([H])c([H])c(OC([H])([H])C([H])([H])N5C([H])([H])C([H])([H])OC([H])([H])C5([H])[H])c([H])c4[H])c32)c1[H]


 34 39  0  0  0  0  0  0  0  0999 V2000
    7.0162   49.8917  129.4252 O   0  0  0  0  0  0  0  0  0  0  0  0
    7.4333   48.7816  130.1757 C   0  0  0  0  0  0  0  0  0  0  0  0
    8.6963   48.8356  130.7444 C   0  0  0  0  0  0  0  0  0  0  0  0
    9.1605   47.7756  131.4913 C   0  0  0  0  0  0  0  0  0  0  0  0
    8.3796   46.6703  131.6733 C   0  0  0  0  0  0  0  0  0  0  0  0
    7.1002   46.6230  131.0948 C   0  0  0  0  0  0  0  0  0  0  0  0
    6.6309   47.6830  130.3451 C   0  0  0  0  0  0  0  0  0  0  0  0
    6.5923   45.4748  131.4315 O   0  0  0  0  0  0  0  0  0  0  0  0
    7.4363   44.7751  132.1803 C   0  0  0  0  0  0  0  0  0  0  0  0
    7.6160   43.5918  132.8631 C   0  0  0  0  0  0  0  0  0  0  0  0
    6.7324   42.5453  132.9851 C   0  0  0  0  0  0  0  0  0  0  0  0
    7.1423   41.4669  133.7357 C   0  0  0  0  0  0  0  0  0  0  0  0
    8.3742   41.4345  134.3358 C   0  0  0  0  0  0  0  0  0  0  0  0
    9.2274   42.5076  134.1859 C   0  0  0  0  0  0  0  0  0  0  0  0
    8.8763   43.6197  133.4446 C   0  0  0  0  0  0  0  0  0  0  0  0
    9.4810   44.8032  133.1281 N   0  0  0  0  0  0  0  0  0  0  0  0
    8.6015   45.4893  132.3684 C   0  0  0  0  0  0  0  0  0  0  0  0
    7.2433   49.8589  128.4363 H   0  0  0  0  0  0  0  0  0  0  0  0
   10.7982   45.1656  133.5625 C   0  0  0  0  0  0  0  0  0  0  0  0
   11.8557   45.0236  132.5345 C   0  0  0  0  0  0  0  0  0  0  0  0
   12.0345   43.8425  131.8382 C   0  0  0  0  0  0  0  0  0  0  0  0
   12.9971   43.6664  130.8736 C   0  0  0  0  0  0  0  0  0  0  0  0
   13.8586   44.6980  130.5462 C   0  0  0  0  0  0  0  0  0  0  0  0
   13.7090   45.8877  131.2205 C   0  0  0  0  0  0  0  0  0  0  0  0
   12.7172   46.0451  132.2033 C   0  0  0  0  0  0  0  0  0  0  0  0
   14.8314   44.5132  129.5670 O   0  0  0  0  0  0  0  0  0  0  0  0
   14.3709   44.2247  128.2449 C   0  0  0  0  0  0  0  0  0  0  0  0
   12.9035   43.8760  128.3216 C   0  0  0  0  0  0  0  0  0  0  0  0
   12.0702   44.6894  127.4991 N   0  0  0  0  0  0  0  0  0  0  0  0
   11.6412   45.8282  128.3093 C   0  0  0  0  0  0  0  0  0  0  0  0
   10.6648   45.4129  129.3723 C   0  0  0  0  0  0  0  0  0  0  0  0
    9.5740   44.8064  128.7847 O   0  0  0  0  0  0  0  0  0  0  0  0
    9.9785   43.6158  128.1765 C   0  0  0  0  0  0  0  0  0  0  0  0
   10.9299   43.9392  127.0380 C   0  0  0  0  0  0  0  0  0  0  0  0
  1  2  1  0  0  0
  2  3  2  0  0  0
  3  4  1  0  0  0
  4  5  2  0  0  0
  5  6  1  0  0  0
  6  7  2  0  0  0
  6  8  1  0  0  0
  8  9  1  0  0  0
  9 10  1  0  0  0
 10 11  2  0  0  0
 11 12  1  0  0  0
 12 13  2  0  0  0
 13 14  1  0  0  0
 14 15  2  0  0  0
 15 16  1  0  0  0
 16 19  1  0  0  0
 19 20  1  0  0  0
 20 21  2  0  0  0
 21 22  1  0  0  0
 22 23  2  0  0  0
 23 26  1  0  0  0
 26 27  1  0  0  0
 27 28  1  0  0  0
 28 29  1  0  0  0
 29 30  1  0  0  0
 30 31  1  0  0  0
 31 32  1  0  0  0
 32 33  1  0  0  0
 33 34  1  0  0  0
 23 24  1  0  0  0
 24 25  2  0  0  0
 16 17  1  0  0  0
  7  2  1  0  0  0
 17  9  2  0  0  0
 17  5  1  0  0  0
 15 10  1  0  0  0
 25 20  1  0  0  0
 34 29  1  0  0  0
  1 18  1  0  0  0
M  END
> <minimizedAffinity>
17.66634

> <CNNscore>
0.4489569962

> <CNNaffinity>
7.5252976418

> <CNN_VS>
3.3785350323

> <CNNaffinity_variance>
1.2765212059

$$$$
[H]Oc1c([H])c([H])c2c(oc3c4c([H])c([H])c([H])c([H])c4n(C([H])([H])c4c([H])c([H])c(OC([H])([H])C([H])([H])N5C([H])([H])C([H])([H])OC([H])([H])C5([H])[H])c([H])c4[H])c32)c1[H]


 34 39  0  0  0  0  0  0  0  0999 V2000
    5.6847   47.8707  128.4159 O   0  0  0  0  0  0  0  0  0  0  0  0
    6.8115   47.1549  128.8490 C   0  0  0  0  0  0  0  0  0  0  0  0
    6.6942   46.4348  130.0276 C   0  0  0  0  0  0  0  0  0  0  0  0
    7.7668   45.7133  130.5028 C   0  0  0  0  0  0  0  0  0  0  0  0
    8.9469   45.7054  129.8159 C   0  0  0  0  0  0  0  0  0  0  0  0
    9.0582   46.4367  128.6214 C   0  0  0  0  0  0  0  0  0  0  0  0
    7.9858   47.1617  128.1415 C   0  0  0  0  0  0  0  0  0  0  0  0
   10.2697   46.2455  128.1909 O   0  0  0  0  0  0  0  0  0  0  0  0
   10.9517   45.4509  129.0068 C   0  0  0  0  0  0  0  0  0  0  0  0
   12.1664   44.8360  129.2199 C   0  0  0  0  0  0  0  0  0  0  0  0
   13.2921   44.8958  128.4325 C   0  0  0  0  0  0  0  0  0  0  0  0
   14.3881   44.1786  128.8554 C   0  0  0  0  0  0  0  0  0  0  0  0
   14.3618   43.4372  130.0080 C   0  0  0  0  0  0  0  0  0  0  0  0
   13.2100   43.4068  130.7659 C   0  0  0  0  0  0  0  0  0  0  0  0
   12.0762   44.1053  130.3969 C   0  0  0  0  0  0  0  0  0  0  0  0
   10.8229   44.2623  130.9175 N   0  0  0  0  0  0  0  0  0  0  0  0
   10.1566   45.0731  130.0690 C   0  0  0  0  0  0  0  0  0  0  0  0
    5.6174   48.8246  128.7567 H   0  0  0  0  0  0  0  0  0  0  0  0
   10.3838   43.6470  132.1355 C   0  0  0  0  0  0  0  0  0  0  0  0
    9.8852   44.5878  133.1658 C   0  0  0  0  0  0  0  0  0  0  0  0
    8.5668   45.0041  133.1887 C   0  0  0  0  0  0  0  0  0  0  0  0
    8.0588   45.8701  134.1269 C   0  0  0  0  0  0  0  0  0  0  0  0
    8.8719   46.3807  135.1229 C   0  0  0  0  0  0  0  0  0  0  0  0
   10.1901   45.9877  135.1294 C   0  0  0  0  0  0  0  0  0  0  0  0
   10.6879   45.1008  134.1598 C   0  0  0  0  0  0  0  0  0  0  0  0
    8.3504   47.2572  136.0711 O   0  0  0  0  0  0  0  0  0  0  0  0
    8.1971   48.6219  135.6745 C   0  0  0  0  0  0  0  0  0  0  0  0
    8.4806   48.7180  134.1942 C   0  0  0  0  0  0  0  0  0  0  0  0
    9.6936   49.3975  133.8789 N   0  0  0  0  0  0  0  0  0  0  0  0
    9.3683   50.4316  132.8980 C   0  0  0  0  0  0  0  0  0  0  0  0
    9.0255   49.8371  131.5621 C   0  0  0  0  0  0  0  0  0  0  0  0
   10.0806   49.0691  131.1148 O   0  0  0  0  0  0  0  0  0  0  0  0
   10.2507   47.9757  131.9671 C   0  0  0  0  0  0  0  0  0  0  0  0
   10.6621   48.4769  133.3403 C   0  0  0  0  0  0  0  0  0  0  0  0
  1  2  1  0  0  0
  2  3  2  0  0  0
  3  4  1  0  0  0
  4  5  2  0  0  0
  5  6  1  0  0  0
  6  7  2  0  0  0
  6  8  1  0  0  0
  8  9  1  0  0  0
  9 10  1  0  0  0
 10 11  2  0  0  0
 11 12  1  0  0  0
 12 13  2  0  0  0
 13 14  1  0  0  0
 14 15  2  0  0  0
 15 16  1  0  0  0
 16 19  1  0  0  0
 19 20  1  0  0  0
 20 21  2  0  0  0
 21 22  1  0  0  0
 22 23  2  0  0  0
 23 26  1  0  0  0
 26 27  1  0  0  0
 27 28  1  0  0  0
 28 29  1  0  0  0
 29 30  1  0  0  0
 30 31  1  0  0  0
 31 32  1  0  0  0
 32 33  1  0  0  0
 33 34  1  0  0  0
 23 24  1  0  0  0
 24 25  2  0  0  0
 16 17  1  0  0  0
  7  2  1  0  0  0
 17  9  2  0  0  0
 17  5  1  0  0  0
 15 10  1  0  0  0
 25 20  1  0  0  0
 34 29  1  0  0  0
  1 18  1  0  0  0
M  END
> <minimizedAffinity>
4.30616

> <CNNscore>
0.4057820141

> <CNNaffinity>
7.1901001930

> <CNN_VS>
2.9176132679

> <CNNaffinity_variance>
0.1739703417

$$$$
[H]Oc1c([H])c([H])c2c(oc3c4c([H])c([H])c([H])c([H])c4n(C([H])([H])c4c([H])c([H])c(OC([H])([H])C([H])([H])N5C([H])([H])C([H])([H])OC([H])([H])C5([H])[H])c([H])c4[H])c32)c1[H]


 34 39  0  0  0  0  0  0  0  0999 V2000
    5.1022   48.2721  126.9636 O   0  0  0  0  0  0  0  0  0  0  0  0
    5.8144   48.1511  128.1668 C   0  0  0  0  0  0  0  0  0  0  0  0
    5.4961   47.0828  128.9906 C   0  0  0  0  0  0  0  0  0  0  0  0
    6.1610   46.9125  130.1846 C   0  0  0  0  0  0  0  0  0  0  0  0
    7.1338   47.7941  130.5600 C   0  0  0  0  0  0  0  0  0  0  0  0
    7.4520   48.8740  129.7194 C   0  0  0  0  0  0  0  0  0  0  0  0
    6.7879   49.0488  128.5219 C   0  0  0  0  0  0  0  0  0  0  0  0
    8.3990   49.5329  130.3185 O   0  0  0  0  0  0  0  0  0  0  0  0
    8.7207   48.9691  131.4766 C   0  0  0  0  0  0  0  0  0  0  0  0
    9.5443   49.0567  132.5778 C   0  0  0  0  0  0  0  0  0  0  0  0
   10.5105   50.0004  132.8361 C   0  0  0  0  0  0  0  0  0  0  0  0
   11.2156   49.8662  134.0104 C   0  0  0  0  0  0  0  0  0  0  0  0
   10.9689   48.8397  134.8846 C   0  0  0  0  0  0  0  0  0  0  0  0
    9.9900   47.9161  134.5834 C   0  0  0  0  0  0  0  0  0  0  0  0
    9.2462   47.9952  133.4215 C   0  0  0  0  0  0  0  0  0  0  0  0
    8.2464   47.2533  132.8590 N   0  0  0  0  0  0  0  0  0  0  0  0
    7.9417   47.8503  131.6876 C   0  0  0  0  0  0  0  0  0  0  0  0
    4.2520   48.8244  127.0146 H   0  0  0  0  0  0  0  0  0  0  0  0
    7.6880   46.0802  133.4648 C   0  0  0  0  0  0  0  0  0  0  0  0
    8.4544   44.8334  133.2340 C   0  0  0  0  0  0  0  0  0  0  0  0
    9.6721   44.6077  133.8490 C   0  0  0  0  0  0  0  0  0  0  0  0
   10.4148   43.4657  133.6695 C   0  0  0  0  0  0  0  0  0  0  0  0
    9.9615   42.4580  132.8372 C   0  0  0  0  0  0  0  0  0  0  0  0
    8.7532   42.6500  132.2084 C   0  0  0  0  0  0  0  0  0  0  0  0
    8.0105   43.8261  132.4070 C   0  0  0  0  0  0  0  0  0  0  0  0
   10.7188   41.3028  132.6605 O   0  0  0  0  0  0  0  0  0  0  0  0
   11.7978   41.3740  131.7256 C   0  0  0  0  0  0  0  0  0  0  0  0
   11.4121   42.3419  130.6323 C   0  0  0  0  0  0  0  0  0  0  0  0
   11.5180   43.7132  131.0077 N   0  0  0  0  0  0  0  0  0  0  0  0
   10.7011   44.4829  130.0711 C   0  0  0  0  0  0  0  0  0  0  0  0
   11.3173   44.5195  128.7019 C   0  0  0  0  0  0  0  0  0  0  0  0
   12.5860   45.0552  128.7815 O   0  0  0  0  0  0  0  0  0  0  0  0
   13.4030   44.2010  129.5258 C   0  0  0  0  0  0  0  0  0  0  0  0
   12.8912   44.1460  130.9545 C   0  0  0  0  0  0  0  0  0  0  0  0
  1  2  1  0  0  0
  2  3  2  0  0  0
  3  4  1  0  0  0
  4  5  2  0  0  0
  5  6  1  0  0  0
  6  7  2  0  0  0
  6  8  1  0  0  0
  8  9  1  0  0  0
  9 10  1  0  0  0
 10 11  2  0  0  0
 11 12  1  0  0  0
 12 13  2  0  0  0
 13 14  1  0  0  0
 14 15  2  0  0  0
 15 16  1  0  0  0
 16 19  1  0  0  0
 19 20  1  0  0  0
 20 21  2  0  0  0
 21 22  1  0  0  0
 22 23  2  0  0  0
 23 26  1  0  0  0
 26 27  1  0  0  0
 27 28  1  0  0  0
 28 29  1  0  0  0
 29 30  1  0  0  0
 30 31  1  0  0  0
 31 32  1  0  0  0
 32 33  1  0  0  0
 33 34  1  0  0  0
 23 24  1  0  0  0
 24 25  2  0  0  0
 16 17  1  0  0  0
  7  2  1  0  0  0
 17  9  2  0  0  0
 17  5  1  0  0  0
 15 10  1  0  0  0
 25 20  1  0  0  0
 34 29  1  0  0  0
  1 18  1  0  0  0
M  END
> <minimizedAffinity>
7.41393

> <CNNscore>
0.3997861743

> <CNNaffinity>
7.6035170555

> <CNN_VS>
3.0397810936

> <CNNaffinity_variance>
0.5272214413

$$$$
[H]Oc1c([H])c([H])c2c(oc3c4c([H])c([H])c([H])c([H])c4n(C([H])([H])c4c([H])c([H])c(OC([H])([H])C([H])([H])N5C([H])([H])C([H])([H])OC([H])([H])C5([H])[H])c([H])c4[H])c32)c1[H]


 34 39  0  0  0  0  0  0  0  0999 V2000
    6.8950   49.6116  127.9439 O   0  0  0  0  0  0  0  0  0  0  0  0
    7.6175   48.8792  128.8984 C   0  0  0  0  0  0  0  0  0  0  0  0
    8.6794   48.1133  128.4433 C   0  0  0  0  0  0  0  0  0  0  0  0
    9.4250   47.3727  129.3334 C   0  0  0  0  0  0  0  0  0  0  0  0
    9.1207   47.3902  130.6644 C   0  0  0  0  0  0  0  0  0  0  0  0
    8.0437   48.1696  131.1188 C   0  0  0  0  0  0  0  0  0  0  0  0
    7.2934   48.9134  130.2301 C   0  0  0  0  0  0  0  0  0  0  0  0
    7.9911   47.9998  132.4064 O   0  0  0  0  0  0  0  0  0  0  0  0
    8.9448   47.1757  132.8236 C   0  0  0  0  0  0  0  0  0  0  0  0
    9.4954   46.5629  133.9281 C   0  0  0  0  0  0  0  0  0  0  0  0
    9.1000   46.6749  135.2402 C   0  0  0  0  0  0  0  0  0  0  0  0
    9.8231   45.9662  136.1725 C   0  0  0  0  0  0  0  0  0  0  0  0
   10.8895   45.1839  135.8129 C   0  0  0  0  0  0  0  0  0  0  0  0
   11.2501   45.1021  134.4842 C   0  0  0  0  0  0  0  0  0  0  0  0
   10.5647   45.7879  133.4996 C   0  0  0  0  0  0  0  0  0  0  0  0
   10.6813   45.9099  132.1439 N   0  0  0  0  0  0  0  0  0  0  0  0
    9.7009   46.7500  131.7511 C   0  0  0  0  0  0  0  0  0  0  0  0
    6.1059   49.1263  127.5287 H   0  0  0  0  0  0  0  0  0  0  0  0
   11.6825   45.2394  131.3673 C   0  0  0  0  0  0  0  0  0  0  0  0
   11.1660   44.4797  130.2049 C   0  0  0  0  0  0  0  0  0  0  0  0
    9.9699   43.7886  130.2653 C   0  0  0  0  0  0  0  0  0  0  0  0
    9.4493   43.0757  129.2123 C   0  0  0  0  0  0  0  0  0  0  0  0
   10.1222   43.0160  128.0051 C   0  0  0  0  0  0  0  0  0  0  0  0
   11.3164   43.6921  127.9103 C   0  0  0  0  0  0  0  0  0  0  0  0
   11.8297   44.4150  129.0004 C   0  0  0  0  0  0  0  0  0  0  0  0
    9.5885   42.2924  126.9416 O   0  0  0  0  0  0  0  0  0  0  0  0
    9.6285   40.8673  127.0449 C   0  0  0  0  0  0  0  0  0  0  0  0
   10.9366   40.3883  126.4617 C   0  0  0  0  0  0  0  0  0  0  0  0
   10.9737   38.9887  126.1926 N   0  0  0  0  0  0  0  0  0  0  0  0
   11.9260   38.7823  125.1027 C   0  0  0  0  0  0  0  0  0  0  0  0
   11.3940   39.3038  123.7985 C   0  0  0  0  0  0  0  0  0  0  0  0
   10.1953   38.6853  123.5093 O   0  0  0  0  0  0  0  0  0  0  0  0
    9.2435   39.0520  124.4636 C   0  0  0  0  0  0  0  0  0  0  0  0
    9.6666   38.5122  125.8185 C   0  0  0  0  0  0  0  0  0  0  0  0
  1  2  1  0  0  0
  2  3  2  0  0  0
  3  4  1  0  0  0
  4  5  2  0  0  0
  5  6  1  0  0  0
  6  7  2  0  0  0
  6  8  1  0  0  0
  8  9  1  0  0  0
  9 10  1  0  0  0
 10 11  2  0  0  0
 11 12  1  0  0  0
 12 13  2  0  0  0
 13 14  1  0  0  0
 14 15  2  0  0  0
 15 16  1  0  0  0
 16 19  1  0  0  0
 19 20  1  0  0  0
 20 21  2  0  0  0
 21 22  1  0  0  0
 22 23  2  0  0  0
 23 26  1  0  0  0
 26 27  1  0  0  0
 27 28  1  0  0  0
 28 29  1  0  0  0
 29 30  1  0  0  0
 30 31  1  0  0  0
 31 32  1  0  0  0
 32 33  1  0  0  0
 33 34  1  0  0  0
 23 24  1  0  0  0
 24 25  2  0  0  0
 16 17  1  0  0  0
  7  2  1  0  0  0
 17  9  2  0  0  0
 17  5  1  0  0  0
 15 10  1  0  0  0
 25 20  1  0  0  0
 34 29  1  0  0  0
  1 18  1  0  0  0
M  END
> <minimizedAffinity>
15.13292

> <CNNscore>
0.3982806504

> <CNNaffinity>
7.4796385765

> <CNN_VS>
2.9789953232

> <CNNaffinity_variance>
1.2730345726

$$$$
[H]Oc1c([H])c([H])c2c(oc3c4c([H])c([H])c([H])c([H])c4n(C([H])([H])c4c([H])c([H])c(OC([H])([H])C([H])([H])N5C([H])([H])C([H])([H])OC([H])([H])C5([H])[H])c([H])c4[H])c32)c1[H]


 34 39  0  0  0  0  0  0  0  0999 V2000
    6.6576   51.4766  128.7697 O   0  0  0  0  0  0  0  0  0  0  0  0
    7.4048   50.6404  129.6135 C   0  0  0  0  0  0  0  0  0  0  0  0
    8.6197   50.1749  129.1355 C   0  0  0  0  0  0  0  0  0  0  0  0
    9.3969   49.3502  129.9183 C   0  0  0  0  0  0  0  0  0  0  0  0
    8.9736   48.9892  131.1653 C   0  0  0  0  0  0  0  0  0  0  0  0
    7.7416   49.4657  131.6438 C   0  0  0  0  0  0  0  0  0  0  0  0
    6.9592   50.2922  130.8624 C   0  0  0  0  0  0  0  0  0  0  0  0
    7.6014   48.9725  132.8383 O   0  0  0  0  0  0  0  0  0  0  0  0
    8.6403   48.2168  133.1731 C   0  0  0  0  0  0  0  0  0  0  0  0
    9.1846   47.4326  134.1668 C   0  0  0  0  0  0  0  0  0  0  0  0
    8.6573   47.1536  135.4057 C   0  0  0  0  0  0  0  0  0  0  0  0
    9.4031   46.3458  136.2336 C   0  0  0  0  0  0  0  0  0  0  0  0
   10.6166   45.8412  135.8444 C   0  0  0  0  0  0  0  0  0  0  0  0
   11.1059   46.1482  134.5920 C   0  0  0  0  0  0  0  0  0  0  0  0
   10.4059   46.9527  133.7132 C   0  0  0  0  0  0  0  0  0  0  0  0
   10.6234   47.4264  132.4504 N   0  0  0  0  0  0  0  0  0  0  0  0
    9.5532   48.1876  132.1393 C   0  0  0  0  0  0  0  0  0  0  0  0
    6.0050   51.0023  128.1535 H   0  0  0  0  0  0  0  0  0  0  0  0
   11.7918   47.1241  131.6768 C   0  0  0  0  0  0  0  0  0  0  0  0
   11.5855   46.1317  130.5962 C   0  0  0  0  0  0  0  0  0  0  0  0
   10.4273   46.1140  129.8410 C   0  0  0  0  0  0  0  0  0  0  0  0
   10.1945   45.2170  128.8264 C   0  0  0  0  0  0  0  0  0  0  0  0
   11.1405   44.2600  128.5057 C   0  0  0  0  0  0  0  0  0  0  0  0
   12.3050   44.2487  129.2380 C   0  0  0  0  0  0  0  0  0  0  0  0
   12.5216   45.1759  130.2712 C   0  0  0  0  0  0  0  0  0  0  0  0
   10.8986   43.3546  127.4758 O   0  0  0  0  0  0  0  0  0  0  0  0
    9.8499   42.4054  127.6826 C   0  0  0  0  0  0  0  0  0  0  0  0
    9.0811   42.8130  128.9169 C   0  0  0  0  0  0  0  0  0  0  0  0
    8.9501   41.7766  129.8872 N   0  0  0  0  0  0  0  0  0  0  0  0
    7.8165   42.1246  130.7422 C   0  0  0  0  0  0  0  0  0  0  0  0
    8.1313   43.2971  131.6264 C   0  0  0  0  0  0  0  0  0  0  0  0
    9.2397   43.0099  132.3957 O   0  0  0  0  0  0  0  0  0  0  0  0
   10.3548   42.8695  131.5663 C   0  0  0  0  0  0  0  0  0  0  0  0
   10.1554   41.6614  130.6680 C   0  0  0  0  0  0  0  0  0  0  0  0
  1  2  1  0  0  0
  2  3  2  0  0  0
  3  4  1  0  0  0
  4  5  2  0  0  0
  5  6  1  0  0  0
  6  7  2  0  0  0
  6  8  1  0  0  0
  8  9  1  0  0  0
  9 10  1  0  0  0
 10 11  2  0  0  0
 11 12  1  0  0  0
 12 13  2  0  0  0
 13 14  1  0  0  0
 14 15  2  0  0  0
 15 16  1  0  0  0
 16 19  1  0  0  0
 19 20  1  0  0  0
 20 21  2  0  0  0
 21 22  1  0  0  0
 22 23  2  0  0  0
 23 26  1  0  0  0
 26 27  1  0  0  0
 27 28  1  0  0  0
 28 29  1  0  0  0
 29 30  1  0  0  0
 30 31  1  0  0  0
 31 32  1  0  0  0
 32 33  1  0  0  0
 33 34  1  0  0  0
 23 24  1  0  0  0
 24 25  2  0  0  0
 16 17  1  0  0  0
  7  2  1  0  0  0
 17  9  2  0  0  0
 17  5  1  0  0  0
 15 10  1  0  0  0
 25 20  1  0  0  0
 34 29  1  0  0  0
  1 18  1  0  0  0
M  END
> <minimizedAffinity>
4.37757

> <CNNscore>
0.3843795359

> <CNNaffinity>
7.2487668991

> <CNN_VS>
2.7862777710

> <CNNaffinity_variance>
0.4017586112

$$$$
[H]Oc1c([H])c([H])c2c(oc3c4c([H])c([H])c([H])c([H])c4n(C([H])([H])c4c([H])c([H])c(OC([H])([H])C([H])([H])N5C([H])([H])C([H])([H])OC([H])([H])C5([H])[H])c([H])c4[H])c32)c1[H]


 34 39  0  0  0  0  0  0  0  0999 V2000
    8.6051   38.9820  128.9546 O   0  0  0  0  0  0  0  0  0  0  0  0
    9.2104   40.1373  129.4728 C   0  0  0  0  0  0  0  0  0  0  0  0
    9.1726   41.2814  128.6911 C   0  0  0  0  0  0  0  0  0  0  0  0
    9.7505   42.4455  129.1468 C   0  0  0  0  0  0  0  0  0  0  0  0
   10.3616   42.4761  130.3675 C   0  0  0  0  0  0  0  0  0  0  0  0
   10.3951   41.3130  131.1549 C   0  0  0  0  0  0  0  0  0  0  0  0
    9.8175   40.1437  130.7020 C   0  0  0  0  0  0  0  0  0  0  0  0
   11.0256   41.6319  132.2460 O   0  0  0  0  0  0  0  0  0  0  0  0
   11.4024   42.9048  132.2308 C   0  0  0  0  0  0  0  0  0  0  0  0
   12.0452   43.8942  132.9425 C   0  0  0  0  0  0  0  0  0  0  0  0
   12.6152   43.8016  134.1904 C   0  0  0  0  0  0  0  0  0  0  0  0
   13.1930   44.9427  134.6987 C   0  0  0  0  0  0  0  0  0  0  0  0
   13.2011   46.1195  133.9960 C   0  0  0  0  0  0  0  0  0  0  0  0
   12.6168   46.1652  132.7476 C   0  0  0  0  0  0  0  0  0  0  0  0
   12.0211   45.0547  132.1807 C   0  0  0  0  0  0  0  0  0  0  0  0
   11.3750   44.7961  131.0051 N   0  0  0  0  0  0  0  0  0  0  0  0
   11.0063   43.4985  131.0502 C   0  0  0  0  0  0  0  0  0  0  0  0
    9.2113   38.3829  128.4031 H   0  0  0  0  0  0  0  0  0  0  0  0
   11.1710   45.7737  129.9767 C   0  0  0  0  0  0  0  0  0  0  0  0
   10.7577   47.1118  130.4605 C   0  0  0  0  0  0  0  0  0  0  0  0
   10.5817   47.3721  131.8070 C   0  0  0  0  0  0  0  0  0  0  0  0
   10.2049   48.5974  132.3019 C   0  0  0  0  0  0  0  0  0  0  0  0
    9.9773   49.6597  131.4455 C   0  0  0  0  0  0  0  0  0  0  0  0
   10.1427   49.4353  130.0984 C   0  0  0  0  0  0  0  0  0  0  0  0
   10.5288   48.1738  129.6148 C   0  0  0  0  0  0  0  0  0  0  0  0
    9.5965   50.8990  131.9538 O   0  0  0  0  0  0  0  0  0  0  0  0
    8.2457   51.0258  132.4036 C   0  0  0  0  0  0  0  0  0  0  0  0
    7.3575   50.2598  131.4523 C   0  0  0  0  0  0  0  0  0  0  0  0
    6.6699   51.0816  130.5118 N   0  0  0  0  0  0  0  0  0  0  0  0
    5.2674   50.6690  130.5201 C   0  0  0  0  0  0  0  0  0  0  0  0
    5.0862   49.3159  129.8940 C   0  0  0  0  0  0  0  0  0  0  0  0
    5.5705   49.3370  128.6025 O   0  0  0  0  0  0  0  0  0  0  0  0
    6.9516   49.5437  128.6297 C   0  0  0  0  0  0  0  0  0  0  0  0
    7.2352   50.9239  129.1960 C   0  0  0  0  0  0  0  0  0  0  0  0
  1  2  1  0  0  0
  2  3  2  0  0  0
  3  4  1  0  0  0
  4  5  2  0  0  0
  5  6  1  0  0  0
  6  7  2  0  0  0
  6  8  1  0  0  0
  8  9  1  0  0  0
  9 10  1  0  0  0
 10 11  2  0  0  0
 11 12  1  0  0  0
 12 13  2  0  0  0
 13 14  1  0  0  0
 14 15  2  0  0  0
 15 16  1  0  0  0
 16 19  1  0  0  0
 19 20  1  0  0  0
 20 21  2  0  0  0
 21 22  1  0  0  0
 22 23  2  0  0  0
 23 26  1  0  0  0
 26 27  1  0  0  0
 27 28  1  0  0  0
 28 29  1  0  0  0
 29 30  1  0  0  0
 30 31  1  0  0  0
 31 32  1  0  0  0
 32 33  1  0  0  0
 33 34  1  0  0  0
 23 24  1  0  0  0
 24 25  2  0  0  0
 16 17  1  0  0  0
  7  2  1  0  0  0
 17  9  2  0  0  0
 17  5  1  0  0  0
 15 10  1  0  0  0
 25 20  1  0  0  0
 34 29  1  0  0  0
  1 18  1  0  0  0
M  END
> <minimizedAffinity>
21.03686

> <CNNscore>
0.3749827743

> <CNNaffinity>
7.2479958534

> <CNN_VS>
2.7178735733

> <CNNaffinity_variance>
1.6045039892

$$$$
[H]Oc1c([H])c([H])c2c(oc3c4c([H])c([H])c([H])c([H])c4n(C([H])([H])c4c([H])c([H])c(OC([H])([H])C([H])([H])N5C([H])([H])C([H])([H])OC([H])([H])C5([H])[H])c([H])c4[H])c32)c1[H]


 34 39  0  0  0  0  0  0  0  0999 V2000
    7.4219   40.4784  130.3041 O   0  0  0  0  0  0  0  0  0  0  0  0
    8.0459   41.5906  130.8902 C   0  0  0  0  0  0  0  0  0  0  0  0
    8.8249   42.3901  130.0685 C   0  0  0  0  0  0  0  0  0  0  0  0
    9.4624   43.4952  130.5874 C   0  0  0  0  0  0  0  0  0  0  0  0
    9.3296   43.8057  131.9104 C   0  0  0  0  0  0  0  0  0  0  0  0
    8.5375   42.9915  132.7371 C   0  0  0  0  0  0  0  0  0  0  0  0
    7.8968   41.8826  132.2214 C   0  0  0  0  0  0  0  0  0  0  0  0
    8.5892   43.5202  133.9235 O   0  0  0  0  0  0  0  0  0  0  0  0
    9.3483   44.6092  133.9335 C   0  0  0  0  0  0  0  0  0  0  0  0
    9.8436   45.6257  134.7210 C   0  0  0  0  0  0  0  0  0  0  0  0
    9.6205   45.8404  136.0608 C   0  0  0  0  0  0  0  0  0  0  0  0
   10.2229   46.9418  136.6250 C   0  0  0  0  0  0  0  0  0  0  0  0
   11.0094   47.7884  135.8878 C   0  0  0  0  0  0  0  0  0  0  0  0
   11.2047   47.5333  134.5466 C   0  0  0  0  0  0  0  0  0  0  0  0
   10.6291   46.4441  133.9206 C   0  0  0  0  0  0  0  0  0  0  0  0
   10.6298   45.9459  132.6485 N   0  0  0  0  0  0  0  0  0  0  0  0
    9.8529   44.8425  132.6709 C   0  0  0  0  0  0  0  0  0  0  0  0
    7.9620   39.6190  130.3175 H   0  0  0  0  0  0  0  0  0  0  0  0
   11.3449   46.5440  131.5595 C   0  0  0  0  0  0  0  0  0  0  0  0
   10.5113   46.9069  130.3896 C   0  0  0  0  0  0  0  0  0  0  0  0
    9.6915   48.0203  130.4023 C   0  0  0  0  0  0  0  0  0  0  0  0
    8.9058   48.3984  129.3402 C   0  0  0  0  0  0  0  0  0  0  0  0
    8.9004   47.6565  128.1727 C   0  0  0  0  0  0  0  0  0  0  0  0
    9.7045   46.5413  128.1261 C   0  0  0  0  0  0  0  0  0  0  0  0
   10.4999   46.1736  129.2244 C   0  0  0  0  0  0  0  0  0  0  0  0
    8.1026   48.0459  127.0999 O   0  0  0  0  0  0  0  0  0  0  0  0
    7.7145   49.4207  127.0485 C   0  0  0  0  0  0  0  0  0  0  0  0
    6.4570   49.5872  127.8681 C   0  0  0  0  0  0  0  0  0  0  0  0
    6.5488   49.0520  129.1864 N   0  0  0  0  0  0  0  0  0  0  0  0
    5.2143   48.5847  129.5579 C   0  0  0  0  0  0  0  0  0  0  0  0
    4.2716   49.7312  129.7866 C   0  0  0  0  0  0  0  0  0  0  0  0
    4.7793   50.5568  130.7683 O   0  0  0  0  0  0  0  0  0  0  0  0
    5.9624   51.1433  130.3132 C   0  0  0  0  0  0  0  0  0  0  0  0
    7.0064   50.0595  130.1090 C   0  0  0  0  0  0  0  0  0  0  0  0
  1  2  1  0  0  0
  2  3  2  0  0  0
  3  4  1  0  0  0
  4  5  2  0  0  0
  5  6  1  0  0  0
  6  7  2  0  0  0
  6  8  1  0  0  0
  8  9  1  0  0  0
  9 10  1  0  0  0
 10 11  2  0  0  0
 11 12  1  0  0  0
 12 13  2  0  0  0
 13 14  1  0  0  0
 14 15  2  0  0  0
 15 16  1  0  0  0
 16 19  1  0  0  0
 19 20  1  0  0  0
 20 21  2  0  0  0
 21 22  1  0  0  0
 22 23  2  0  0  0
 23 26  1  0  0  0
 26 27  1  0  0  0
 27 28  1  0  0  0
 28 29  1  0  0  0
 29 30  1  0  0  0
 30 31  1  0  0  0
 31 32  1  0  0  0
 32 33  1  0  0  0
 33 34  1  0  0  0
 23 24  1  0  0  0
 24 25  2  0  0  0
 16 17  1  0  0  0
  7  2  1  0  0  0
 17  9  2  0  0  0
 17  5  1  0  0  0
 15 10  1  0  0  0
 25 20  1  0  0  0
 34 29  1  0  0  0
  1 18  1  0  0  0
M  END
> <minimizedAffinity>
17.64175

> <CNNscore>
0.3459899724

> <CNNaffinity>
7.3191199303

> <CNN_VS>
2.5323421955

> <CNNaffinity_variance>
1.2312352657

$$$$
[H]Oc1c([H])c([H])c2c(oc3c4c([H])c([H])c([H])c([H])c4n(C([H])([H])c4c([H])c([H])c(OC([H])([H])C([H])([H])N5C([H])([H])C([H])([H])OC([H])([H])C5([H])[H])c([H])c4[H])c32)c1[H]


 34 39  0  0  0  0  0  0  0  0999 V2000
   10.0274   47.0553  136.9303 O   0  0  0  0  0  0  0  0  0  0  0  0
    9.9573   46.2352  135.7936 C   0  0  0  0  0  0  0  0  0  0  0  0
    9.2961   46.7391  134.6845 C   0  0  0  0  0  0  0  0  0  0  0  0
    9.1947   45.9798  133.5400 C   0  0  0  0  0  0  0  0  0  0  0  0
    9.7438   44.7304  133.4945 C   0  0  0  0  0  0  0  0  0  0  0  0
   10.4136   44.2265  134.6221 C   0  0  0  0  0  0  0  0  0  0  0  0
   10.5174   44.9840  135.7716 C   0  0  0  0  0  0  0  0  0  0  0  0
   10.8296   43.0390  134.2960 O   0  0  0  0  0  0  0  0  0  0  0  0
   10.4855   42.7325  133.0509 C   0  0  0  0  0  0  0  0  0  0  0  0
   10.5527   41.7635  132.0735 C   0  0  0  0  0  0  0  0  0  0  0  0
   11.1579   40.5310  132.1472 C   0  0  0  0  0  0  0  0  0  0  0  0
   11.0987   39.7387  131.0234 C   0  0  0  0  0  0  0  0  0  0  0  0
   10.4666   40.1562  129.8810 C   0  0  0  0  0  0  0  0  0  0  0  0
    9.8736   41.4010  129.8533 C   0  0  0  0  0  0  0  0  0  0  0  0
    9.8969   42.2439  130.9481 C   0  0  0  0  0  0  0  0  0  0  0  0
    9.4213   43.4961  131.2168 N   0  0  0  0  0  0  0  0  0  0  0  0
    9.7851   43.7778  132.4855 C   0  0  0  0  0  0  0  0  0  0  0  0
    9.2623   46.9520  137.5896 H   0  0  0  0  0  0  0  0  0  0  0  0
    8.6879   44.2887  130.2739 C   0  0  0  0  0  0  0  0  0  0  0  0
    8.5960   45.7294  130.6072 C   0  0  0  0  0  0  0  0  0  0  0  0
    7.4522   46.2724  131.1628 C   0  0  0  0  0  0  0  0  0  0  0  0
    7.3234   47.6000  131.4930 C   0  0  0  0  0  0  0  0  0  0  0  0
    8.3677   48.4810  131.2763 C   0  0  0  0  0  0  0  0  0  0  0  0
    9.5210   47.9741  130.7239 C   0  0  0  0  0  0  0  0  0  0  0  0
    9.6304   46.6126  130.3942 C   0  0  0  0  0  0  0  0  0  0  0  0
    8.2307   49.8250  131.6141 O   0  0  0  0  0  0  0  0  0  0  0  0
    8.4596   50.7792  130.5748 C   0  0  0  0  0  0  0  0  0  0  0  0
    8.4021   50.0569  129.2497 C   0  0  0  0  0  0  0  0  0  0  0  0
    7.3166   50.4580  128.4170 N   0  0  0  0  0  0  0  0  0  0  0  0
    6.4456   51.3122  129.2225 C   0  0  0  0  0  0  0  0  0  0  0  0
    5.7161   50.5235  130.2721 C   0  0  0  0  0  0  0  0  0  0  0  0
    4.9808   49.5239  129.6695 O   0  0  0  0  0  0  0  0  0  0  0  0
    5.8486   48.6111  129.0657 C   0  0  0  0  0  0  0  0  0  0  0  0
    6.5943   49.3062  127.9402 C   0  0  0  0  0  0  0  0  0  0  0  0
  1  2  1  0  0  0
  2  3  2  0  0  0
  3  4  1  0  0  0
  4  5  2  0  0  0
  5  6  1  0  0  0
  6  7  2  0  0  0
  6  8  1  0  0  0
  8  9  1  0  0  0
  9 10  1  0  0  0
 10 11  2  0  0  0
 11 12  1  0  0  0
 12 13  2  0  0  0
 13 14  1  0  0  0
 14 15  2  0  0  0
 15 16  1  0  0  0
 16 19  1  0  0  0
 19 20  1  0  0  0
 20 21  2  0  0  0
 21 22  1  0  0  0
 22 23  2  0  0  0
 23 26  1  0  0  0
 26 27  1  0  0  0
 27 28  1  0  0  0
 28 29  1  0  0  0
 29 30  1  0  0  0
 30 31  1  0  0  0
 31 32  1  0  0  0
 32 33  1  0  0  0
 33 34  1  0  0  0
 23 24  1  0  0  0
 24 25  2  0  0  0
 16 17  1  0  0  0
  7  2  1  0  0  0
 17  9  2  0  0  0
 17  5  1  0  0  0
 15 10  1  0  0  0
 25 20  1  0  0  0
 34 29  1  0  0  0
  1 18  1  0  0  0
M  END
> <minimizedAffinity>
11.57323

> <CNNscore>
0.3271539807

> <CNNaffinity>
7.4316468239

> <CNN_VS>
2.4312927723

> <CNNaffinity_variance>
1.0257854462

$$$$
[H]Oc1c([H])c([H])c2c(oc3c4c([H])c([H])c([H])c([H])c4n(C([H])([H])c4c([H])c([H])c(OC([H])([H])C([H])([H])N5C([H])([H])C([H])([H])OC([H])([H])C5([H])[H])c([H])c4[H])c32)c1[H]


 34 39  0  0  0  0  0  0  0  0999 V2000
    6.0727   40.8665  131.4993 O   0  0  0  0  0  0  0  0  0  0  0  0
    7.1733   41.7288  131.6209 C   0  0  0  0  0  0  0  0  0  0  0  0
    7.4758   42.5327  130.5330 C   0  0  0  0  0  0  0  0  0  0  0  0
    8.5450   43.3987  130.5935 C   0  0  0  0  0  0  0  0  0  0  0  0
    9.3091   43.4677  131.7231 C   0  0  0  0  0  0  0  0  0  0  0  0
    8.9959   42.6507  132.8223 C   0  0  0  0  0  0  0  0  0  0  0  0
    7.9253   41.7809  132.7661 C   0  0  0  0  0  0  0  0  0  0  0  0
    9.8733   42.9268  133.7408 O   0  0  0  0  0  0  0  0  0  0  0  0
   10.7280   43.8549  133.3279 C   0  0  0  0  0  0  0  0  0  0  0  0
   11.8268   44.6070  133.6823 C   0  0  0  0  0  0  0  0  0  0  0  0
   12.5083   44.5947  134.8766 C   0  0  0  0  0  0  0  0  0  0  0  0
   13.5767   45.4543  134.9942 C   0  0  0  0  0  0  0  0  0  0  0  0
   13.9470   46.2863  133.9697 C   0  0  0  0  0  0  0  0  0  0  0  0
   13.2335   46.2643  132.7897 C   0  0  0  0  0  0  0  0  0  0  0  0
   12.1516   45.4241  132.6078 C   0  0  0  0  0  0  0  0  0  0  0  0
   11.2707   45.1853  131.5913 N   0  0  0  0  0  0  0  0  0  0  0  0
   10.4183   44.2400  132.0399 C   0  0  0  0  0  0  0  0  0  0  0  0
    6.2810   39.9440  131.1305 H   0  0  0  0  0  0  0  0  0  0  0  0
   11.3152   45.8558  130.3251 C   0  0  0  0  0  0  0  0  0  0  0  0
    9.9918   46.1876  129.7474 C   0  0  0  0  0  0  0  0  0  0  0  0
    8.8804   46.3796  130.5473 C   0  0  0  0  0  0  0  0  0  0  0  0
    7.6356   46.6936  130.0571 C   0  0  0  0  0  0  0  0  0  0  0  0
    7.4334   46.8359  128.6961 C   0  0  0  0  0  0  0  0  0  0  0  0
    8.5182   46.6509  127.8708 C   0  0  0  0  0  0  0  0  0  0  0  0
    9.7821   46.3304  128.3943 C   0  0  0  0  0  0  0  0  0  0  0  0
    6.1695   47.1551  128.2061 O   0  0  0  0  0  0  0  0  0  0  0  0
    5.4490   48.1795  128.8951 C   0  0  0  0  0  0  0  0  0  0  0  0
    6.3161   48.6908  130.0210 C   0  0  0  0  0  0  0  0  0  0  0  0
    6.5995   50.0861  129.9470 N   0  0  0  0  0  0  0  0  0  0  0  0
    7.6496   50.2623  128.9453 C   0  0  0  0  0  0  0  0  0  0  0  0
    8.9694   49.7342  129.4301 C   0  0  0  0  0  0  0  0  0  0  0  0
    9.3172   50.3701  130.6039 O   0  0  0  0  0  0  0  0  0  0  0  0
    8.4007   50.0320  131.6023 C   0  0  0  0  0  0  0  0  0  0  0  0
    7.0351   50.5809  131.2281 C   0  0  0  0  0  0  0  0  0  0  0  0
  1  2  1  0  0  0
  2  3  2  0  0  0
  3  4  1  0  0  0
  4  5  2  0  0  0
  5  6  1  0  0  0
  6  7  2  0  0  0
  6  8  1  0  0  0
  8  9  1  0  0  0
  9 10  1  0  0  0
 10 11  2  0  0  0
 11 12  1  0  0  0
 12 13  2  0  0  0
 13 14  1  0  0  0
 14 15  2  0  0  0
 15 16  1  0  0  0
 16 19  1  0  0  0
 19 20  1  0  0  0
 20 21  2  0  0  0
 21 22  1  0  0  0
 22 23  2  0  0  0
 23 26  1  0  0  0
 26 27  1  0  0  0
 27 28  1  0  0  0
 28 29  1  0  0  0
 29 30  1  0  0  0
 30 31  1  0  0  0
 31 32  1  0  0  0
 32 33  1  0  0  0
 33 34  1  0  0  0
 23 24  1  0  0  0
 24 25  2  0  0  0
 16 17  1  0  0  0
  7  2  1  0  0  0
 17  9  2  0  0  0
 17  5  1  0  0  0
 15 10  1  0  0  0
 25 20  1  0  0  0
 34 29  1  0  0  0
  1 18  1  0  0  0
M  END
> <minimizedAffinity>
11.93319

> <CNNscore>
0.3254106641

> <CNNaffinity>
7.4323959351

> <CNN_VS>
2.4185810089

> <CNNaffinity_variance>
1.0916694403

$$$$
[H]Oc1c([H])c(Br)c([H])c(-c2c([H])c([H])c3c([H])c(O[H])c([H])c([H])c3c2[H])c1[H]


 21 23  0  0  0  0  0  0  0  0999 V2000
    6.8096   51.7156  128.7814 O   0  0  0  0  0  0  0  0  0  0  0  0
    7.2643   50.4344  129.1377 C   0  0  0  0  0  0  0  0  0  0  0  0
    6.9885   49.3334  128.3491 C   0  0  0  0  0  0  0  0  0  0  0  0
    7.4762   48.1244  128.7816 C   0  0  0  0  0  0  0  0  0  0  0  0
    8.2141   47.9692  129.9465 C   0  0  0  0  0  0  0  0  0  0  0  0
    8.6778   46.7079  130.3238 C   0  0  0  0  0  0  0  0  0  0  0  0
    9.4060   46.5832  131.4823 C   0  0  0  0  0  0  0  0  0  0  0  0
    9.6466   47.7227  132.2248 C   0  0  0  0  0  0  0  0  0  0  0  0
    9.1914   48.9712  131.8575 C   0  0  0  0  0  0  0  0  0  0  0  0
    8.4593   49.0985  130.6936 C   0  0  0  0  0  0  0  0  0  0  0  0
    7.9834   50.3235  130.2853 C   0  0  0  0  0  0  0  0  0  0  0  0
    5.8827   52.0038  129.1322 H   0  0  0  0  0  0  0  0  0  0  0  0
    9.9118   45.2714  131.9131 C   0  0  0  0  0  0  0  0  0  0  0  0
   10.3705   45.1182  133.2043 C   0  0  0  0  0  0  0  0  0  0  0  0
   10.8556   43.8843  133.6391 C   0  0  0  0  0  0  0  0  0  0  0  0
   11.4941   43.6785  135.4438 Br  0  0  0  0  0  0  0  0  0  0  0  0
   10.8725   42.8191  132.7675 C   0  0  0  0  0  0  0  0  0  0  0  0
   10.4199   42.9548  131.4800 C   0  0  0  0  0  0  0  0  0  0  0  0
   10.4476   41.8605  130.6166 O   0  0  0  0  0  0  0  0  0  0  0  0
    9.9479   44.1803  131.0783 C   0  0  0  0  0  0  0  0  0  0  0  0
   10.1371   41.8860  129.6744 H   0  0  0  0  0  0  0  0  0  0  0  0
  1  2  1  0  0  0
  2  3  2  0  0  0
  3  4  1  0  0  0
  4  5  2  0  0  0
  5  6  1  0  0  0
  6  7  2  0  0  0
  7  8  1  0  0  0
  8  9  2  0  0  0
  9 10  1  0  0  0
 10 11  2  0  0  0
  7 13  1  0  0  0
 13 14  2  0  0  0
 14 15  1  0  0  0
 15 16  1  0  0  0
 15 17  2  0  0  0
 17 18  1  0  0  0
 18 19  1  0  0  0
 18 20  2  0  0  0
 11  2  1  0  0  0
 20 13  1  0  0  0
 10  5  1  0  0  0
  1 12  1  0  0  0
 19 21  1  0  0  0
M  END
> <minimizedAffinity>
-7.13467

> <CNNscore>
0.6978157759

> <CNNaffinity>
6.9889082909

> <CNN_VS>
4.8769702911

> <CNNaffinity_variance>
0.8614848852

$$$$
[H]Oc1c([H])c(Br)c([H])c(-c2c([H])c([H])c3c([H])c(O[H])c([H])c([H])c3c2[H])c1[H]


 21 23  0  0  0  0  0  0  0  0999 V2000
   11.5481   40.5726  132.0497 O   0  0  0  0  0  0  0  0  0  0  0  0
   11.1389   41.9144  131.9634 C   0  0  0  0  0  0  0  0  0  0  0  0
   11.8202   42.9137  132.6323 C   0  0  0  0  0  0  0  0  0  0  0  0
   11.3432   44.1933  132.4855 C   0  0  0  0  0  0  0  0  0  0  0  0
   10.2353   44.5134  131.7137 C   0  0  0  0  0  0  0  0  0  0  0  0
    9.8075   45.8380  131.6107 C   0  0  0  0  0  0  0  0  0  0  0  0
    8.7073   46.1263  130.8396 C   0  0  0  0  0  0  0  0  0  0  0  0
    8.0718   45.0817  130.1973 C   0  0  0  0  0  0  0  0  0  0  0  0
    8.4895   43.7715  130.2950 C   0  0  0  0  0  0  0  0  0  0  0  0
    9.5948   43.4797  131.0695 C   0  0  0  0  0  0  0  0  0  0  0  0
   10.0499   42.1873  131.1979 C   0  0  0  0  0  0  0  0  0  0  0  0
   11.1436   40.0019  132.8085 H   0  0  0  0  0  0  0  0  0  0  0  0
    8.2261   47.5094  130.7064 C   0  0  0  0  0  0  0  0  0  0  0  0
    8.8656   48.5141  131.4011 C   0  0  0  0  0  0  0  0  0  0  0  0
    8.4296   49.8350  131.2926 C   0  0  0  0  0  0  0  0  0  0  0  0
    9.3283   51.2323  132.2658 Br  0  0  0  0  0  0  0  0  0  0  0  0
    7.3542   50.1280  130.4850 C   0  0  0  0  0  0  0  0  0  0  0  0
    6.7071   49.1404  129.7873 C   0  0  0  0  0  0  0  0  0  0  0  0
    5.6202   49.4632  128.9760 O   0  0  0  0  0  0  0  0  0  0  0  0
    7.1570   47.8489  129.9124 C   0  0  0  0  0  0  0  0  0  0  0  0
    5.1059   48.8018  128.4441 H   0  0  0  0  0  0  0  0  0  0  0  0
  1  2  1  0  0  0
  2  3  2  0  0  0
  3  4  1  0  0  0
  4  5  2  0  0  0
  5  6  1  0  0  0
  6  7  2  0  0  0
  7  8  1  0  0  0
  8  9  2  0  0  0
  9 10  1  0  0  0
 10 11  2  0  0  0
  7 13  1  0  0  0
 13 14  2  0  0  0
 14 15  1  0  0  0
 15 16  1  0  0  0
 15 17  2  0  0  0
 17 18  1  0  0  0
 18 19  1  0  0  0
 18 20  2  0  0  0
 11  2  1  0  0  0
 20 13  1  0  0  0
 10  5  1  0  0  0
  1 12  1  0  0  0
 19 21  1  0  0  0
M  END
> <minimizedAffinity>
-4.26331

> <CNNscore>
0.6526027322

> <CNNaffinity>
7.0642228127

> <CNN_VS>
4.6101312637

> <CNNaffinity_variance>
1.5539300442

$$$$
[H]Oc1c([H])c(Br)c([H])c(-c2c([H])c([H])c3c([H])c(O[H])c([H])c([H])c3c2[H])c1[H]


 21 23  0  0  0  0  0  0  0  0999 V2000
    6.7715   51.6282  128.5117 O   0  0  0  0  0  0  0  0  0  0  0  0
    7.2385   50.4262  129.0708 C   0  0  0  0  0  0  0  0  0  0  0  0
    6.9915   49.2109  128.4606 C   0  0  0  0  0  0  0  0  0  0  0  0
    7.4891   48.0927  129.0840 C   0  0  0  0  0  0  0  0  0  0  0  0
    8.2097   48.1340  130.2692 C   0  0  0  0  0  0  0  0  0  0  0  0
    8.6850   46.9551  130.8459 C   0  0  0  0  0  0  0  0  0  0  0  0
    9.3955   47.0254  132.0199 C   0  0  0  0  0  0  0  0  0  0  0  0
    9.6075   48.2708  132.5780 C   0  0  0  0  0  0  0  0  0  0  0  0
    9.1407   49.4387  132.0132 C   0  0  0  0  0  0  0  0  0  0  0  0
    8.4264   49.3702  130.8335 C   0  0  0  0  0  0  0  0  0  0  0  0
    7.9399   50.5081  130.2316 C   0  0  0  0  0  0  0  0  0  0  0  0
    5.8349   51.9522  128.7998 H   0  0  0  0  0  0  0  0  0  0  0  0
    9.9127   45.8057  132.6580 C   0  0  0  0  0  0  0  0  0  0  0  0
   10.1211   44.6805  131.8888 C   0  0  0  0  0  0  0  0  0  0  0  0
   10.6112   43.5101  132.4689 C   0  0  0  0  0  0  0  0  0  0  0  0
   10.8998   41.9431  131.3878 Br  0  0  0  0  0  0  0  0  0  0  0  0
   10.8857   43.4872  133.8175 C   0  0  0  0  0  0  0  0  0  0  0  0
   10.6839   44.5977  134.5966 C   0  0  0  0  0  0  0  0  0  0  0  0
   10.9697   44.5489  135.9603 O   0  0  0  0  0  0  0  0  0  0  0  0
   10.2007   45.7364  134.0000 C   0  0  0  0  0  0  0  0  0  0  0  0
   10.8482   45.3120  136.5829 H   0  0  0  0  0  0  0  0  0  0  0  0
  1  2  1  0  0  0
  2  3  2  0  0  0
  3  4  1  0  0  0
  4  5  2  0  0  0
  5  6  1  0  0  0
  6  7  2  0  0  0
  7  8  1  0  0  0
  8  9  2  0  0  0
  9 10  1  0  0  0
 10 11  2  0  0  0
  7 13  1  0  0  0
 13 14  2  0  0  0
 14 15  1  0  0  0
 15 16  1  0  0  0
 15 17  2  0  0  0
 17 18  1  0  0  0
 18 19  1  0  0  0
 18 20  2  0  0  0
 11  2  1  0  0  0
 20 13  1  0  0  0
 10  5  1  0  0  0
  1 12  1  0  0  0
 19 21  1  0  0  0
M  END
> <minimizedAffinity>
-7.01448

> <CNNscore>
0.6432376504

> <CNNaffinity>
6.7431120872

> <CNN_VS>
4.3374238014

> <CNNaffinity_variance>
0.3820701241

$$$$
[H]Oc1c([H])c(Br)c([H])c(-c2c([H])c([H])c3c([H])c(O[H])c([H])c([H])c3c2[H])c1[H]


 21 23  0  0  0  0  0  0  0  0999 V2000
    6.8078   51.8170  128.5154 O   0  0  0  0  0  0  0  0  0  0  0  0
    7.1561   50.5479  129.0088 C   0  0  0  0  0  0  0  0  0  0  0  0
    6.8535   49.3990  128.3028 C   0  0  0  0  0  0  0  0  0  0  0  0
    7.2351   48.2066  128.8678 C   0  0  0  0  0  0  0  0  0  0  0  0
    7.8939   48.1127  130.0855 C   0  0  0  0  0  0  0  0  0  0  0  0
    8.2512   46.8648  130.5986 C   0  0  0  0  0  0  0  0  0  0  0  0
    8.9028   46.8014  131.8067 C   0  0  0  0  0  0  0  0  0  0  0  0
    9.1755   47.9865  132.4613 C   0  0  0  0  0  0  0  0  0  0  0  0
    8.8252   49.2221  131.9597 C   0  0  0  0  0  0  0  0  0  0  0  0
    8.1703   49.2879  130.7459 C   0  0  0  0  0  0  0  0  0  0  0  0
    7.8001   50.4977  130.2043 C   0  0  0  0  0  0  0  0  0  0  0  0
    5.8836   52.1914  128.7814 H   0  0  0  0  0  0  0  0  0  0  0  0
    9.2957   45.5055  132.3800 C   0  0  0  0  0  0  0  0  0  0  0  0
   10.5593   45.3608  132.9124 C   0  0  0  0  0  0  0  0  0  0  0  0
   10.9578   44.1423  133.4628 C   0  0  0  0  0  0  0  0  0  0  0  0
   12.7241   43.9483  134.2044 Br  0  0  0  0  0  0  0  0  0  0  0  0
   10.0780   43.0837  133.4705 C   0  0  0  0  0  0  0  0  0  0  0  0
    8.8176   43.2112  132.9451 C   0  0  0  0  0  0  0  0  0  0  0  0
    7.9452   42.1239  132.9651 O   0  0  0  0  0  0  0  0  0  0  0  0
    8.4514   44.4216  132.4096 C   0  0  0  0  0  0  0  0  0  0  0  0
    7.0211   42.1440  132.6037 H   0  0  0  0  0  0  0  0  0  0  0  0
  1  2  1  0  0  0
  2  3  2  0  0  0
  3  4  1  0  0  0
  4  5  2  0  0  0
  5  6  1  0  0  0
  6  7  2  0  0  0
  7  8  1  0  0  0
  8  9  2  0  0  0
  9 10  1  0  0  0
 10 11  2  0  0  0
  7 13  1  0  0  0
 13 14  2  0  0  0
 14 15  1  0  0  0
 15 16  1  0  0  0
 15 17  2  0  0  0
 17 18  1  0  0  0
 18 19  1  0  0  0
 18 20  2  0  0  0
 11  2  1  0  0  0
 20 13  1  0  0  0
 10  5  1  0  0  0
  1 12  1  0  0  0
 19 21  1  0  0  0
M  END
> <minimizedAffinity>
-7.38503

> <CNNscore>
0.6399340034

> <CNNaffinity>
6.7388534546

> <CNN_VS>
4.3124213219

> <CNNaffinity_variance>
0.5415407419

$$$$
[H]Oc1c([H])c(Br)c([H])c(-c2c([H])c([H])c3c([H])c(O[H])c([H])c([H])c3c2[H])c1[H]


 21 23  0  0  0  0  0  0  0  0999 V2000
    6.6192   51.6165  128.9001 O   0  0  0  0  0  0  0  0  0  0  0  0
    7.3032   50.4457  129.2697 C   0  0  0  0  0  0  0  0  0  0  0  0
    7.1617   49.2768  128.5459 C   0  0  0  0  0  0  0  0  0  0  0  0
    7.8712   48.1863  128.9863 C   0  0  0  0  0  0  0  0  0  0  0  0
    8.7012   48.2112  130.0981 C   0  0  0  0  0  0  0  0  0  0  0  0
    9.3921   47.0625  130.4872 C   0  0  0  0  0  0  0  0  0  0  0  0
   10.2071   47.1157  131.5922 C   0  0  0  0  0  0  0  0  0  0  0  0
   10.3045   48.3145  132.2711 C   0  0  0  0  0  0  0  0  0  0  0  0
    9.6247   49.4524  131.8918 C   0  0  0  0  0  0  0  0  0  0  0  0
    8.8052   49.4010  130.7817 C   0  0  0  0  0  0  0  0  0  0  0  0
    8.1062   50.5104  130.3640 C   0  0  0  0  0  0  0  0  0  0  0  0
    5.6830   51.7669  129.3077 H   0  0  0  0  0  0  0  0  0  0  0  0
   10.9514   45.9267  132.0334 C   0  0  0  0  0  0  0  0  0  0  0  0
   10.7568   45.4472  133.3114 C   0  0  0  0  0  0  0  0  0  0  0  0
   11.4500   44.3207  133.7555 C   0  0  0  0  0  0  0  0  0  0  0  0
   11.1726   43.6571  135.5415 Br  0  0  0  0  0  0  0  0  0  0  0  0
   12.3312   43.6906  132.9064 C   0  0  0  0  0  0  0  0  0  0  0  0
   12.5361   44.1548  131.6322 C   0  0  0  0  0  0  0  0  0  0  0  0
   13.4341   43.4986  130.7916 O   0  0  0  0  0  0  0  0  0  0  0  0
   11.8409   45.2654  131.2209 C   0  0  0  0  0  0  0  0  0  0  0  0
   13.6316   43.7781  129.8600 H   0  0  0  0  0  0  0  0  0  0  0  0
  1  2  1  0  0  0
  2  3  2  0  0  0
  3  4  1  0  0  0
  4  5  2  0  0  0
  5  6  1  0  0  0
  6  7  2  0  0  0
  7  8  1  0  0  0
  8  9  2  0  0  0
  9 10  1  0  0  0
 10 11  2  0  0  0
  7 13  1  0  0  0
 13 14  2  0  0  0
 14 15  1  0  0  0
 15 16  1  0  0  0
 15 17  2  0  0  0
 17 18  1  0  0  0
 18 19  1  0  0  0
 18 20  2  0  0  0
 11  2  1  0  0  0
 20 13  1  0  0  0
 10  5  1  0  0  0
  1 12  1  0  0  0
 19 21  1  0  0  0
M  END
> <minimizedAffinity>
-7.60591

> <CNNscore>
0.6200246811

> <CNNaffinity>
6.6084318161

> <CNN_VS>
4.0973906517

> <CNNaffinity_variance>
0.4414778352

$$$$
[H]Oc1c([H])c(Br)c([H])c(-c2c([H])c([H])c3c([H])c(O[H])c([H])c([H])c3c2[H])c1[H]


 21 23  0  0  0  0  0  0  0  0999 V2000
    6.8389   51.4867  128.6231 O   0  0  0  0  0  0  0  0  0  0  0  0
    7.3827   50.4272  129.3696 C   0  0  0  0  0  0  0  0  0  0  0  0
    8.0364   50.6573  130.5654 C   0  0  0  0  0  0  0  0  0  0  0  0
    8.5331   49.5574  131.2210 C   0  0  0  0  0  0  0  0  0  0  0  0
    8.4080   48.2605  130.7435 C   0  0  0  0  0  0  0  0  0  0  0  0
    8.9388   47.1900  131.4649 C   0  0  0  0  0  0  0  0  0  0  0  0
    8.8004   45.9162  130.9685 C   0  0  0  0  0  0  0  0  0  0  0  0
    8.1364   45.7548  129.7683 C   0  0  0  0  0  0  0  0  0  0  0  0
    7.6098   46.8080  129.0511 C   0  0  0  0  0  0  0  0  0  0  0  0
    7.7480   48.0888  129.5483 C   0  0  0  0  0  0  0  0  0  0  0  0
    7.2396   49.1722  128.8688 C   0  0  0  0  0  0  0  0  0  0  0  0
    7.4490   51.9332  127.9206 H   0  0  0  0  0  0  0  0  0  0  0  0
    9.3459   44.7627  131.6994 C   0  0  0  0  0  0  0  0  0  0  0  0
    8.4784   43.8781  132.3042 C   0  0  0  0  0  0  0  0  0  0  0  0
    8.9693   42.7753  133.0038 C   0  0  0  0  0  0  0  0  0  0  0  0
    7.7511   41.5443  133.8454 Br  0  0  0  0  0  0  0  0  0  0  0  0
   10.3289   42.5768  133.0857 C   0  0  0  0  0  0  0  0  0  0  0  0
   11.2052   43.4473  132.4898 C   0  0  0  0  0  0  0  0  0  0  0  0
   12.5779   43.2241  132.5874 O   0  0  0  0  0  0  0  0  0  0  0  0
   10.6951   44.5244  131.8076 C   0  0  0  0  0  0  0  0  0  0  0  0
   13.2682   43.8109  132.1824 H   0  0  0  0  0  0  0  0  0  0  0  0
  1  2  1  0  0  0
  2  3  2  0  0  0
  3  4  1  0  0  0
  4  5  2  0  0  0
  5  6  1  0  0  0
  6  7  2  0  0  0
  7  8  1  0  0  0
  8  9  2  0  0  0
  9 10  1  0  0  0
 10 11  2  0  0  0
  7 13  1  0  0  0
 13 14  2  0  0  0
 14 15  1  0  0  0
 15 16  1  0  0  0
 15 17  2  0  0  0
 17 18  1  0  0  0
 18 19  1  0  0  0
 18 20  2  0  0  0
 11  2  1  0  0  0
 20 13  1  0  0  0
 10  5  1  0  0  0
  1 12  1  0  0  0
 19 21  1  0  0  0
M  END
> <minimizedAffinity>
-6.08018

> <CNNscore>
0.5883910656

> <CNNaffinity>
6.8872551918

> <CNN_VS>
4.0523996353

> <CNNaffinity_variance>
1.2582643032

$$$$
[H]Oc1c([H])c(Br)c([H])c(-c2c([H])c([H])c3c([H])c(O[H])c([H])c([H])c3c2[H])c1[H]


 21 23  0  0  0  0  0  0  0  0999 V2000
    4.5806   50.1716  129.0591 O   0  0  0  0  0  0  0  0  0  0  0  0
    5.7381   49.5371  129.5418 C   0  0  0  0  0  0  0  0  0  0  0  0
    6.7586   50.2618  130.1279 C   0  0  0  0  0  0  0  0  0  0  0  0
    7.8486   49.5515  130.5682 C   0  0  0  0  0  0  0  0  0  0  0  0
    7.9624   48.1735  130.4510 C   0  0  0  0  0  0  0  0  0  0  0  0
    9.1013   47.5182  130.9219 C   0  0  0  0  0  0  0  0  0  0  0  0
    9.1875   46.1529  130.7927 C   0  0  0  0  0  0  0  0  0  0  0  0
    8.1331   45.4883  130.1976 C   0  0  0  0  0  0  0  0  0  0  0  0
    7.0056   46.1298  129.7306 C   0  0  0  0  0  0  0  0  0  0  0  0
    6.9171   47.5018  129.8595 C   0  0  0  0  0  0  0  0  0  0  0  0
    5.8120   48.1869  129.4086 C   0  0  0  0  0  0  0  0  0  0  0  0
    4.5885   50.4881  128.0768 H   0  0  0  0  0  0  0  0  0  0  0  0
   10.3711   45.4268  131.2765 C   0  0  0  0  0  0  0  0  0  0  0  0
   10.4197   45.0211  132.5934 C   0  0  0  0  0  0  0  0  0  0  0  0
   11.5307   44.3304  133.0784 C   0  0  0  0  0  0  0  0  0  0  0  0
   11.5909   43.7672  134.9186 Br  0  0  0  0  0  0  0  0  0  0  0  0
   12.5798   44.0563  132.2304 C   0  0  0  0  0  0  0  0  0  0  0  0
   12.5470   44.4528  130.9179 C   0  0  0  0  0  0  0  0  0  0  0  0
   13.6225   44.1629  130.0793 O   0  0  0  0  0  0  0  0  0  0  0  0
   11.4415   45.1311  130.4668 C   0  0  0  0  0  0  0  0  0  0  0  0
   13.6669   44.4185  129.1215 H   0  0  0  0  0  0  0  0  0  0  0  0
  1  2  1  0  0  0
  2  3  2  0  0  0
  3  4  1  0  0  0
  4  5  2  0  0  0
  5  6  1  0  0  0
  6  7  2  0  0  0
  7  8  1  0  0  0
  8  9  2  0  0  0
  9 10  1  0  0  0
 10 11  2  0  0  0
  7 13  1  0  0  0
 13 14  2  0  0  0
 14 15  1  0  0  0
 15 16  1  0  0  0
 15 17  2  0  0  0
 17 18  1  0  0  0
 18 19  1  0  0  0
 18 20  2  0  0  0
 11  2  1  0  0  0
 20 13  1  0  0  0
 10  5  1  0  0  0
  1 12  1  0  0  0
 19 21  1  0  0  0
M  END
> <minimizedAffinity>
-7.56207

> <CNNscore>
0.5803989172

> <CNNaffinity>
6.7661199570

> <CNN_VS>
3.9270486832

> <CNNaffinity_variance>
0.7604575753

$$$$
[H]Oc1c([H])c(Br)c([H])c(-c2c([H])c([H])c3c([H])c(O[H])c([H])c([H])c3c2[H])c1[H]


 21 23  0  0  0  0  0  0  0  0999 V2000
    4.7281   50.1620  129.0832 O   0  0  0  0  0  0  0  0  0  0  0  0
    5.8856   49.4990  129.5261 C   0  0  0  0  0  0  0  0  0  0  0  0
    6.9724   50.2037  130.0083 C   0  0  0  0  0  0  0  0  0  0  0  0
    8.0565   49.4662  130.4173 C   0  0  0  0  0  0  0  0  0  0  0  0
    8.1024   48.0802  130.3666 C   0  0  0  0  0  0  0  0  0  0  0  0
    9.2396   47.3968  130.8001 C   0  0  0  0  0  0  0  0  0  0  0  0
    9.2577   46.0242  130.7386 C   0  0  0  0  0  0  0  0  0  0  0  0
    8.1391   45.3807  130.2464 C   0  0  0  0  0  0  0  0  0  0  0  0
    7.0130   46.0499  129.8168 C   0  0  0  0  0  0  0  0  0  0  0  0
    6.9929   47.4293  129.8777 C   0  0  0  0  0  0  0  0  0  0  0  0
    5.8919   48.1418  129.4606 C   0  0  0  0  0  0  0  0  0  0  0  0
    4.6865   50.4279  128.0869 H   0  0  0  0  0  0  0  0  0  0  0  0
   10.4372   45.2686  131.1859 C   0  0  0  0  0  0  0  0  0  0  0  0
   11.5115   45.1312  130.3326 C   0  0  0  0  0  0  0  0  0  0  0  0
   12.6432   44.4195  130.7318 C   0  0  0  0  0  0  0  0  0  0  0  0
   14.1393   44.2324  129.5343 Br  0  0  0  0  0  0  0  0  0  0  0  0
   12.6792   43.8547  131.9865 C   0  0  0  0  0  0  0  0  0  0  0  0
   11.6191   43.9822  132.8473 C   0  0  0  0  0  0  0  0  0  0  0  0
   11.6803   43.4007  134.1130 O   0  0  0  0  0  0  0  0  0  0  0  0
   10.5178   44.6878  132.4288 C   0  0  0  0  0  0  0  0  0  0  0  0
   10.9526   43.4523  134.7858 H   0  0  0  0  0  0  0  0  0  0  0  0
  1  2  1  0  0  0
  2  3  2  0  0  0
  3  4  1  0  0  0
  4  5  2  0  0  0
  5  6  1  0  0  0
  6  7  2  0  0  0
  7  8  1  0  0  0
  8  9  2  0  0  0
  9 10  1  0  0  0
 10 11  2  0  0  0
  7 13  1  0  0  0
 13 14  2  0  0  0
 14 15  1  0  0  0
 15 16  1  0  0  0
 15 17  2  0  0  0
 17 18  1  0  0  0
 18 19  1  0  0  0
 18 20  2  0  0  0
 11  2  1  0  0  0
 20 13  1  0  0  0
 10  5  1  0  0  0
  1 12  1  0  0  0
 19 21  1  0  0  0
M  END
> <minimizedAffinity>
-7.12283

> <CNNscore>
0.5732015967

> <CNNaffinity>
6.7027039528

> <CNN_VS>
3.8420007229

> <CNNaffinity_variance>
0.6867617369

$$$$
[H]Oc1c([H])c(Br)c([H])c(-c2c([H])c([H])c3c([H])c(O[H])c([H])c([H])c3c2[H])c1[H]


 21 23  0  0  0  0  0  0  0  0999 V2000
   11.8999   40.5369  132.9210 O   0  0  0  0  0  0  0  0  0  0  0  0
   11.6530   41.8580  132.5099 C   0  0  0  0  0  0  0  0  0  0  0  0
   12.6223   42.5962  131.8574 C   0  0  0  0  0  0  0  0  0  0  0  0
   12.2855   43.8778  131.4958 C   0  0  0  0  0  0  0  0  0  0  0  0
   11.0453   44.4447  131.7528 C   0  0  0  0  0  0  0  0  0  0  0  0
   10.7738   45.7549  131.3554 C   0  0  0  0  0  0  0  0  0  0  0  0
    9.5372   46.2911  131.6228 C   0  0  0  0  0  0  0  0  0  0  0  0
    8.6136   45.5003  132.2780 C   0  0  0  0  0  0  0  0  0  0  0  0
    8.8757   44.2057  132.6729 C   0  0  0  0  0  0  0  0  0  0  0  0
   10.1178   43.6651  132.4052 C   0  0  0  0  0  0  0  0  0  0  0  0
   10.4268   42.3774  132.7797 C   0  0  0  0  0  0  0  0  0  0  0  0
   12.2913   40.4001  133.8661 H   0  0  0  0  0  0  0  0  0  0  0  0
    9.2133   47.6677  131.2200 C   0  0  0  0  0  0  0  0  0  0  0  0
    9.6882   48.7190  131.9752 C   0  0  0  0  0  0  0  0  0  0  0  0
    9.3958   50.0349  131.6153 C   0  0  0  0  0  0  0  0  0  0  0  0
   10.0629   51.4976  132.6750 Br  0  0  0  0  0  0  0  0  0  0  0  0
    8.6284   50.2760  130.4983 C   0  0  0  0  0  0  0  0  0  0  0  0
    8.1484   49.2416  129.7365 C   0  0  0  0  0  0  0  0  0  0  0  0
    7.3732   49.5123  128.6097 O   0  0  0  0  0  0  0  0  0  0  0  0
    8.4511   47.9562  130.1134 C   0  0  0  0  0  0  0  0  0  0  0  0
    6.9936   48.8154  128.0139 H   0  0  0  0  0  0  0  0  0  0  0  0
  1  2  1  0  0  0
  2  3  2  0  0  0
  3  4  1  0  0  0
  4  5  2  0  0  0
  5  6  1  0  0  0
  6  7  2  0  0  0
  7  8  1  0  0  0
  8  9  2  0  0  0
  9 10  1  0  0  0
 10 11  2  0  0  0
  7 13  1  0  0  0
 13 14  2  0  0  0
 14 15  1  0  0  0
 15 16  1  0  0  0
 15 17  2  0  0  0
 17 18  1  0  0  0
 18 19  1  0  0  0
 18 20  2  0  0  0
 11  2  1  0  0  0
 20 13  1  0  0  0
 10  5  1  0  0  0
  1 12  1  0  0  0
 19 21  1  0  0  0
M  END
> <minimizedAffinity>
2.08440

> <CNNscore>
0.5667642951

> <CNNaffinity>
6.9470663071

> <CNN_VS>
3.9373490810

> <CNNaffinity_variance>
2.2314515114

$$$$
[H]c1c2c(c3c([H])nn([H])c3c1[H])C([H])([H])[C@@]1(C([H])([H])C([H])([H])C([H])([H])[H])C2=C(C(=O)N([H])N([H])[H])C(=O)C([H])([H])C1([H])[H]


 28 31  0  0  0  0  0  0  0  0999 V2000
   10.0613   46.9323  132.2679 C   0  0  0  0  0  0  0  0  0  0  0  0
   10.0887   48.2819  131.5213 C   0  0  0  0  0  0  0  0  0  0  0  0
    8.8188   48.1747  130.7314 C   0  0  0  0  0  0  0  0  0  0  0  0
    8.6605   46.8189  130.4682 C   0  0  0  0  0  0  0  0  0  0  0  0
    7.5552   46.3429  129.7833 C   0  0  0  0  0  0  0  0  0  0  0  0
    6.5754   47.2104  129.3357 C   0  0  0  0  0  0  0  0  0  0  0  0
    6.7531   48.5524  129.6046 C   0  0  0  0  0  0  0  0  0  0  0  0
    5.9946   49.6416  129.3099 N   0  0  0  0  0  0  0  0  0  0  0  0
    6.5849   50.7228  129.7813 N   0  0  0  0  0  0  0  0  0  0  0  0
    7.7386   50.3999  130.3969 C   0  0  0  0  0  0  0  0  0  0  0  0
    7.8490   49.0461  130.2898 C   0  0  0  0  0  0  0  0  0  0  0  0
    9.8102   46.1119  131.0336 C   0  0  0  0  0  0  0  0  0  0  0  0
   10.3900   45.0118  130.6881 C   0  0  0  0  0  0  0  0  0  0  0  0
   11.4243   44.4891  131.6637 C   0  0  0  0  0  0  0  0  0  0  0  0
   11.6065   43.2625  131.7443 O   0  0  0  0  0  0  0  0  0  0  0  0
   12.1528   45.5169  132.4628 C   0  0  0  0  0  0  0  0  0  0  0  0
   11.2783   46.5847  132.9878 C   0  0  0  0  0  0  0  0  0  0  0  0
    5.0823   49.6268  128.7892 H   0  0  0  0  0  0  0  0  0  0  0  0
   10.3559   44.3441  129.3999 C   0  0  0  0  0  0  0  0  0  0  0  0
   11.0736   44.8587  128.4441 O   0  0  0  0  0  0  0  0  0  0  0  0
    9.6413   43.2233  129.0236 N   0  0  0  0  0  0  0  0  0  0  0  0
    9.7559   42.7075  127.6962 N   0  0  0  0  0  0  0  0  0  0  0  0
    8.9677   42.7277  129.5941 H   0  0  0  0  0  0  0  0  0  0  0  0
   10.1101   43.4446  127.0561 H   0  0  0  0  0  0  0  0  0  0  0  0
    8.8109   42.4304  127.3465 H   0  0  0  0  0  0  0  0  0  0  0  0
    8.8345   46.9387  133.1353 C   0  0  0  0  0  0  0  0  0  0  0  0
    8.3193   44.5749  133.7371 C   0  0  0  0  0  0  0  0  0  0  0  0
    8.8991   45.9088  134.2145 C   0  0  0  0  0  0  0  0  0  0  0  0
 27 28  1  0  0  0
 28 26  1  0  0  0
  1 26  1  0  0  0
  1  2  1  0  0  0
  2  3  1  0  0  0
  3  4  2  0  0  0
  4  5  1  0  0  0
  5  6  2  0  0  0
  6  7  1  0  0  0
  7  8  1  0  0  0
  8  9  1  0  0  0
  9 10  2  0  0  0
 10 11  1  0  0  0
  4 12  1  0  0  0
 12 13  2  0  0  0
 13 14  1  0  0  0
 14 15  2  0  0  0
 14 16  1  0  0  0
 16 17  1  0  0  0
 13 19  1  0  0  0
 19 20  2  0  0  0
 19 21  1  0  0  0
 21 22  1  0  0  0
 12  1  1  0  0  0
 17  1  1  0  0  0
 11  3  1  0  0  0
 11  7  2  0  0  0
  8 18  1  0  0  0
 21 23  1  0  0  0
 22 24  1  0  0  0
 22 25  1  0  0  0
M  END
> <minimizedAffinity>
-9.70240

> <CNNscore>
0.8059447408

> <CNNaffinity>
7.7232637405

> <CNN_VS>
6.2245240211

> <CNNaffinity_variance>
0.1551383436

$$$$
[H]c1c2c(c3c([H])nn([H])c3c1[H])C([H])([H])[C@@]1(C([H])([H])C([H])([H])C([H])([H])[H])C2=C(C(=O)N([H])N([H])[H])C(=O)C([H])([H])C1([H])[H]


 28 31  0  0  0  0  0  0  0  0999 V2000
    8.9848   45.0409  129.6364 C   0  0  0  0  0  0  0  0  0  0  0  0
    7.7038   45.8947  129.7344 C   0  0  0  0  0  0  0  0  0  0  0  0
    8.2628   47.1434  130.3481 C   0  0  0  0  0  0  0  0  0  0  0  0
    9.3212   46.7220  131.1447 C   0  0  0  0  0  0  0  0  0  0  0  0
   10.1044   47.6283  131.8395 C   0  0  0  0  0  0  0  0  0  0  0  0
    9.8492   48.9854  131.7626 C   0  0  0  0  0  0  0  0  0  0  0  0
    8.7922   49.3825  130.9689 C   0  0  0  0  0  0  0  0  0  0  0  0
    8.2873   50.6125  130.6848 N   0  0  0  0  0  0  0  0  0  0  0  0
    7.2611   50.4827  129.8664 N   0  0  0  0  0  0  0  0  0  0  0  0
    7.0479   49.1839  129.5797 C   0  0  0  0  0  0  0  0  0  0  0  0
    8.0007   48.4923  130.2652 C   0  0  0  0  0  0  0  0  0  0  0  0
    9.3922   45.2626  131.0663 C   0  0  0  0  0  0  0  0  0  0  0  0
    9.8151   44.3821  131.9099 C   0  0  0  0  0  0  0  0  0  0  0  0
    9.9304   42.9706  131.3719 C   0  0  0  0  0  0  0  0  0  0  0  0
   10.8006   42.2187  131.8427 O   0  0  0  0  0  0  0  0  0  0  0  0
    8.9657   42.5958  130.2974 C   0  0  0  0  0  0  0  0  0  0  0  0
    8.7863   43.6447  129.2737 C   0  0  0  0  0  0  0  0  0  0  0  0
    8.6546   51.5236  131.0570 H   0  0  0  0  0  0  0  0  0  0  0  0
    9.9670   44.5148  133.3472 C   0  0  0  0  0  0  0  0  0  0  0  0
    8.9618   45.0110  134.0081 O   0  0  0  0  0  0  0  0  0  0  0  0
   11.0565   44.2001  134.1360 N   0  0  0  0  0  0  0  0  0  0  0  0
   11.0022   44.3937  135.5505 N   0  0  0  0  0  0  0  0  0  0  0  0
   11.9581   43.8801  133.8052 H   0  0  0  0  0  0  0  0  0  0  0  0
   10.2574   45.0771  135.7890 H   0  0  0  0  0  0  0  0  0  0  0  0
   11.9055   44.8015  135.8821 H   0  0  0  0  0  0  0  0  0  0  0  0
    9.9252   45.7694  128.7186 C   0  0  0  0  0  0  0  0  0  0  0  0
   12.2019   44.8143  129.0642 C   0  0  0  0  0  0  0  0  0  0  0  0
   10.9736   44.8697  128.1523 C   0  0  0  0  0  0  0  0  0  0  0  0
 27 28  1  0  0  0
 28 26  1  0  0  0
  1 26  1  0  0  0
  1  2  1  0  0  0
  2  3  1  0  0  0
  3  4  2  0  0  0
  4  5  1  0  0  0
  5  6  2  0  0  0
  6  7  1  0  0  0
  7  8  1  0  0  0
  8  9  1  0  0  0
  9 10  2  0  0  0
 10 11  1  0  0  0
  4 12  1  0  0  0
 12 13  2  0  0  0
 13 14  1  0  0  0
 14 15  2  0  0  0
 14 16  1  0  0  0
 16 17  1  0  0  0
 13 19  1  0  0  0
 19 20  2  0  0  0
 19 21  1  0  0  0
 21 22  1  0  0  0
 12  1  1  0  0  0
 17  1  1  0  0  0
 11  3  1  0  0  0
 11  7  2  0  0  0
  8 18  1  0  0  0
 21 23  1  0  0  0
 22 24  1  0  0  0
 22 25  1  0  0  0
M  END
> <minimizedAffinity>
-9.41472

> <CNNscore>
0.5793930292

> <CNNaffinity>
7.6491713524

> <CNN_VS>
4.4318766594

> <CNNaffinity_variance>
0.3960027099

$$$$
[H]c1c2c(c3c([H])nn([H])c3c1[H])C([H])([H])[C@@]1(C([H])([H])C([H])([H])C([H])([H])[H])C2=C(C(=O)N([H])N([H])[H])C(=O)C([H])([H])C1([H])[H]


 28 31  0  0  0  0  0  0  0  0999 V2000
    9.2815   44.5689  130.0375 C   0  0  0  0  0  0  0  0  0  0  0  0
    7.7733   44.8924  130.0458 C   0  0  0  0  0  0  0  0  0  0  0  0
    7.8219   46.3831  130.1993 C   0  0  0  0  0  0  0  0  0  0  0  0
    8.9671   46.6410  130.9439 C   0  0  0  0  0  0  0  0  0  0  0  0
    9.3535   47.9362  131.2447 C   0  0  0  0  0  0  0  0  0  0  0  0
    8.6024   49.0145  130.8135 C   0  0  0  0  0  0  0  0  0  0  0  0
    7.4677   48.7367  130.0784 C   0  0  0  0  0  0  0  0  0  0  0  0
    6.5322   49.5488  129.5183 N   0  0  0  0  0  0  0  0  0  0  0  0
    5.6256   48.8108  128.9074 N   0  0  0  0  0  0  0  0  0  0  0  0
    5.9184   47.5022  129.0355 C   0  0  0  0  0  0  0  0  0  0  0  0
    7.0675   47.4498  129.7656 C   0  0  0  0  0  0  0  0  0  0  0  0
    9.5854   45.3581  131.2803 C   0  0  0  0  0  0  0  0  0  0  0  0
   10.3168   44.9996  132.2813 C   0  0  0  0  0  0  0  0  0  0  0  0
   10.9544   43.6305  132.1620 C   0  0  0  0  0  0  0  0  0  0  0  0
   12.0482   43.4282  132.7159 O   0  0  0  0  0  0  0  0  0  0  0  0
   10.1957   42.6188  131.3706 C   0  0  0  0  0  0  0  0  0  0  0  0
    9.6243   43.1560  130.1195 C   0  0  0  0  0  0  0  0  0  0  0  0
    6.5295   50.5983  129.5637 H   0  0  0  0  0  0  0  0  0  0  0  0
   10.4179   45.6215  133.5889 C   0  0  0  0  0  0  0  0  0  0  0  0
   11.5586   46.1631  133.9032 O   0  0  0  0  0  0  0  0  0  0  0  0
    9.4621   45.7102  134.5822 N   0  0  0  0  0  0  0  0  0  0  0  0
    9.7562   46.3836  135.8075 N   0  0  0  0  0  0  0  0  0  0  0  0
    8.5437   45.2845  134.5642 H   0  0  0  0  0  0  0  0  0  0  0  0
   10.7839   46.4372  135.9475 H   0  0  0  0  0  0  0  0  0  0  0  0
    9.3691   45.8356  136.6088 H   0  0  0  0  0  0  0  0  0  0  0  0
    9.8687   45.2581  128.8385 C   0  0  0  0  0  0  0  0  0  0  0  0
   12.3199   44.8320  128.9958 C   0  0  0  0  0  0  0  0  0  0  0  0
   11.0191   44.5033  128.2587 C   0  0  0  0  0  0  0  0  0  0  0  0
 27 28  1  0  0  0
 28 26  1  0  0  0
  1 26  1  0  0  0
  1  2  1  0  0  0
  2  3  1  0  0  0
  3  4  2  0  0  0
  4  5  1  0  0  0
  5  6  2  0  0  0
  6  7  1  0  0  0
  7  8  1  0  0  0
  8  9  1  0  0  0
  9 10  2  0  0  0
 10 11  1  0  0  0
  4 12  1  0  0  0
 12 13  2  0  0  0
 13 14  1  0  0  0
 14 15  2  0  0  0
 14 16  1  0  0  0
 16 17  1  0  0  0
 13 19  1  0  0  0
 19 20  2  0  0  0
 19 21  1  0  0  0
 21 22  1  0  0  0
 12  1  1  0  0  0
 17  1  1  0  0  0
 11  3  1  0  0  0
 11  7  2  0  0  0
  8 18  1  0  0  0
 21 23  1  0  0  0
 22 24  1  0  0  0
 22 25  1  0  0  0
M  END
> <minimizedAffinity>
-8.59943

> <CNNscore>
0.5746883154

> <CNNaffinity>
7.6156129837

> <CNN_VS>
4.3766036034

> <CNNaffinity_variance>
0.1483313441

$$$$
[H]c1c2c(c3c([H])nn([H])c3c1[H])C([H])([H])[C@@]1(C([H])([H])C([H])([H])C([H])([H])[H])C2=C(C(=O)N([H])N([H])[H])C(=O)C([H])([H])C1([H])[H]


 28 31  0  0  0  0  0  0  0  0999 V2000
   10.0629   46.6008  133.0500 C   0  0  0  0  0  0  0  0  0  0  0  0
   10.1513   48.0583  132.5525 C   0  0  0  0  0  0  0  0  0  0  0  0
    9.4587   47.9299  131.2289 C   0  0  0  0  0  0  0  0  0  0  0  0
    9.7350   46.6400  130.7906 C   0  0  0  0  0  0  0  0  0  0  0  0
    9.2120   46.1557  129.6034 C   0  0  0  0  0  0  0  0  0  0  0  0
    8.3996   46.9499  128.8147 C   0  0  0  0  0  0  0  0  0  0  0  0
    8.1402   48.2281  129.2663 C   0  0  0  0  0  0  0  0  0  0  0  0
    7.3981   49.2391  128.7412 N   0  0  0  0  0  0  0  0  0  0  0  0
    7.4520   50.2818  129.5471 N   0  0  0  0  0  0  0  0  0  0  0  0
    8.2187   50.0090  130.6206 C   0  0  0  0  0  0  0  0  0  0  0  0
    8.6511   48.7282  130.4507 C   0  0  0  0  0  0  0  0  0  0  0  0
   10.6033   46.0028  131.7811 C   0  0  0  0  0  0  0  0  0  0  0  0
   11.4961   45.0781  131.6645 C   0  0  0  0  0  0  0  0  0  0  0  0
   12.0334   44.5264  132.9691 C   0  0  0  0  0  0  0  0  0  0  0  0
   12.4120   43.3435  133.0092 O   0  0  0  0  0  0  0  0  0  0  0  0
   12.0627   45.4740  134.1210 C   0  0  0  0  0  0  0  0  0  0  0  0
   10.8400   46.2929  134.2424 C   0  0  0  0  0  0  0  0  0  0  0  0
    6.8652   49.1986  127.8368 H   0  0  0  0  0  0  0  0  0  0  0  0
   12.2152   44.6684  130.4722 C   0  0  0  0  0  0  0  0  0  0  0  0
   11.5049   44.2820  129.4527 O   0  0  0  0  0  0  0  0  0  0  0  0
   13.5790   44.6098  130.2603 N   0  0  0  0  0  0  0  0  0  0  0  0
   14.0945   44.1878  128.9964 N   0  0  0  0  0  0  0  0  0  0  0  0
   14.2968   44.7903  130.9509 H   0  0  0  0  0  0  0  0  0  0  0  0
   13.3764   43.6413  128.4824 H   0  0  0  0  0  0  0  0  0  0  0  0
   14.9099   43.5516  129.1467 H   0  0  0  0  0  0  0  0  0  0  0  0
    8.6027   46.2746  133.1870 C   0  0  0  0  0  0  0  0  0  0  0  0
    8.3950   43.7991  132.9791 C   0  0  0  0  0  0  0  0  0  0  0  0
    8.3749   44.9992  133.9291 C   0  0  0  0  0  0  0  0  0  0  0  0
 27 28  1  0  0  0
 28 26  1  0  0  0
  1 26  1  0  0  0
  1  2  1  0  0  0
  2  3  1  0  0  0
  3  4  2  0  0  0
  4  5  1  0  0  0
  5  6  2  0  0  0
  6  7  1  0  0  0
  7  8  1  0  0  0
  8  9  1  0  0  0
  9 10  2  0  0  0
 10 11  1  0  0  0
  4 12  1  0  0  0
 12 13  2  0  0  0
 13 14  1  0  0  0
 14 15  2  0  0  0
 14 16  1  0  0  0
 16 17  1  0  0  0
 13 19  1  0  0  0
 19 20  2  0  0  0
 19 21  1  0  0  0
 21 22  1  0  0  0
 12  1  1  0  0  0
 17  1  1  0  0  0
 11  3  1  0  0  0
 11  7  2  0  0  0
  8 18  1  0  0  0
 21 23  1  0  0  0
 22 24  1  0  0  0
 22 25  1  0  0  0
M  END
> <minimizedAffinity>
-7.90374

> <CNNscore>
0.5530923605

> <CNNaffinity>
7.5018167496

> <CNN_VS>
4.1491975784

> <CNNaffinity_variance>
0.3471961617

$$$$
[H]c1c2c(c3c([H])nn([H])c3c1[H])C([H])([H])[C@@]1(C([H])([H])C([H])([H])C([H])([H])[H])C2=C(C(=O)N([H])N([H])[H])C(=O)C([H])([H])C1([H])[H]


 28 31  0  0  0  0  0  0  0  0999 V2000
   10.1071   46.2011  132.7548 C   0  0  0  0  0  0  0  0  0  0  0  0
    9.1225   45.1081  132.2907 C   0  0  0  0  0  0  0  0  0  0  0  0
    9.5124   44.9944  130.8474 C   0  0  0  0  0  0  0  0  0  0  0  0
    9.9391   46.2649  130.4785 C   0  0  0  0  0  0  0  0  0  0  0  0
   10.4182   46.5218  129.2050 C   0  0  0  0  0  0  0  0  0  0  0  0
   10.4805   45.5151  128.2585 C   0  0  0  0  0  0  0  0  0  0  0  0
   10.0493   44.2620  128.6441 C   0  0  0  0  0  0  0  0  0  0  0  0
    9.9803   43.0829  127.9706 N   0  0  0  0  0  0  0  0  0  0  0  0
    9.4942   42.1534  128.7702 N   0  0  0  0  0  0  0  0  0  0  0  0
    9.2259   42.6696  129.9851 C   0  0  0  0  0  0  0  0  0  0  0  0
    9.5704   43.9858  129.9123 C   0  0  0  0  0  0  0  0  0  0  0  0
    9.7797   47.1481  131.6343 C   0  0  0  0  0  0  0  0  0  0  0  0
    9.5623   48.4177  131.7147 C   0  0  0  0  0  0  0  0  0  0  0  0
    9.6780   49.0093  133.1046 C   0  0  0  0  0  0  0  0  0  0  0  0
   10.0487   50.1892  133.2250 O   0  0  0  0  0  0  0  0  0  0  0  0
    9.3282   48.1023  134.2363 C   0  0  0  0  0  0  0  0  0  0  0  0
    9.8719   46.7374  134.0880 C   0  0  0  0  0  0  0  0  0  0  0  0
   10.2681   42.9334  126.9714 H   0  0  0  0  0  0  0  0  0  0  0  0
    8.9984   49.2985  130.7083 C   0  0  0  0  0  0  0  0  0  0  0  0
    9.8268   49.8525  129.8715 O   0  0  0  0  0  0  0  0  0  0  0  0
    7.6792   49.6588  130.5133 N   0  0  0  0  0  0  0  0  0  0  0  0
    7.3224   50.5377  129.4449 N   0  0  0  0  0  0  0  0  0  0  0  0
    6.8984   49.4011  131.1038 H   0  0  0  0  0  0  0  0  0  0  0  0
    8.1520   51.0822  129.1384 H   0  0  0  0  0  0  0  0  0  0  0  0
    6.6141   51.2281  129.7823 H   0  0  0  0  0  0  0  0  0  0  0  0
   11.4917   45.6483  132.5683 C   0  0  0  0  0  0  0  0  0  0  0  0
   12.1903   43.7017  133.9602 C   0  0  0  0  0  0  0  0  0  0  0  0
   12.1117   45.2272  133.8597 C   0  0  0  0  0  0  0  0  0  0  0  0
 27 28  1  0  0  0
 28 26  1  0  0  0
  1 26  1  0  0  0
  1  2  1  0  0  0
  2  3  1  0  0  0
  3  4  2  0  0  0
  4  5  1  0  0  0
  5  6  2  0  0  0
  6  7  1  0  0  0
  7  8  1  0  0  0
  8  9  1  0  0  0
  9 10  2  0  0  0
 10 11  1  0  0  0
  4 12  1  0  0  0
 12 13  2  0  0  0
 13 14  1  0  0  0
 14 15  2  0  0  0
 14 16  1  0  0  0
 16 17  1  0  0  0
 13 19  1  0  0  0
 19 20  2  0  0  0
 19 21  1  0  0  0
 21 22  1  0  0  0
 12  1  1  0  0  0
 17  1  1  0  0  0
 11  3  1  0  0  0
 11  7  2  0  0  0
  8 18  1  0  0  0
 21 23  1  0  0  0
 22 24  1  0  0  0
 22 25  1  0  0  0
M  END
> <minimizedAffinity>
-7.62617

> <CNNscore>
0.4595739245

> <CNNaffinity>
7.3409738541

> <CNN_VS>
3.3737201691

> <CNNaffinity_variance>
0.0810448974

$$$$
[H]c1c2c(c3c([H])nn([H])c3c1[H])C([H])([H])[C@@]1(C([H])([H])C([H])([H])C([H])([H])[H])C2=C(C(=O)N([H])N([H])[H])C(=O)C([H])([H])C1([H])[H]


 28 31  0  0  0  0  0  0  0  0999 V2000
    9.7812   47.1860  132.5446 C   0  0  0  0  0  0  0  0  0  0  0  0
    9.2129   45.8484  133.0618 C   0  0  0  0  0  0  0  0  0  0  0  0
    9.5286   44.9576  131.8977 C   0  0  0  0  0  0  0  0  0  0  0  0
    9.4619   45.7767  130.7766 C   0  0  0  0  0  0  0  0  0  0  0  0
    9.7422   45.2891  129.5112 C   0  0  0  0  0  0  0  0  0  0  0  0
   10.0933   43.9640  129.3278 C   0  0  0  0  0  0  0  0  0  0  0  0
   10.1507   43.1671  130.4533 C   0  0  0  0  0  0  0  0  0  0  0  0
   10.4560   41.8522  130.6152 N   0  0  0  0  0  0  0  0  0  0  0  0
   10.3746   41.5414  131.8945 N   0  0  0  0  0  0  0  0  0  0  0  0
   10.0183   42.6190  132.6199 C   0  0  0  0  0  0  0  0  0  0  0  0
    9.8771   43.6370  131.7254 C   0  0  0  0  0  0  0  0  0  0  0  0
    9.0759   47.1171  131.2189 C   0  0  0  0  0  0  0  0  0  0  0  0
    8.4347   48.0625  130.6182 C   0  0  0  0  0  0  0  0  0  0  0  0
    8.4221   49.3963  131.3363 C   0  0  0  0  0  0  0  0  0  0  0  0
    8.3647   50.4392  130.6631 O   0  0  0  0  0  0  0  0  0  0  0  0
    8.4808   49.3414  132.8261 C   0  0  0  0  0  0  0  0  0  0  0  0
    9.4561   48.3601  133.3422 C   0  0  0  0  0  0  0  0  0  0  0  0
   10.7158   41.1869  129.8449 H   0  0  0  0  0  0  0  0  0  0  0  0
    7.5385   47.9591  129.4813 C   0  0  0  0  0  0  0  0  0  0  0  0
    7.9864   48.3720  128.3314 O   0  0  0  0  0  0  0  0  0  0  0  0
    6.2394   47.4910  129.4420 N   0  0  0  0  0  0  0  0  0  0  0  0
    5.5225   47.4573  128.2066 N   0  0  0  0  0  0  0  0  0  0  0  0
    5.6865   47.2021  130.2392 H   0  0  0  0  0  0  0  0  0  0  0  0
    5.9515   48.1150  127.5269 H   0  0  0  0  0  0  0  0  0  0  0  0
    4.5411   47.7805  128.3635 H   0  0  0  0  0  0  0  0  0  0  0  0
   11.2574   46.9860  132.3488 C   0  0  0  0  0  0  0  0  0  0  0  0
   12.7192   45.1235  133.1289 C   0  0  0  0  0  0  0  0  0  0  0  0
   11.9054   46.3543  133.5364 C   0  0  0  0  0  0  0  0  0  0  0  0
 27 28  1  0  0  0
 28 26  1  0  0  0
  1 26  1  0  0  0
  1  2  1  0  0  0
  2  3  1  0  0  0
  3  4  2  0  0  0
  4  5  1  0  0  0
  5  6  2  0  0  0
  6  7  1  0  0  0
  7  8  1  0  0  0
  8  9  1  0  0  0
  9 10  2  0  0  0
 10 11  1  0  0  0
  4 12  1  0  0  0
 12 13  2  0  0  0
 13 14  1  0  0  0
 14 15  2  0  0  0
 14 16  1  0  0  0
 16 17  1  0  0  0
 13 19  1  0  0  0
 19 20  2  0  0  0
 19 21  1  0  0  0
 21 22  1  0  0  0
 12  1  1  0  0  0
 17  1  1  0  0  0
 11  3  1  0  0  0
 11  7  2  0  0  0
  8 18  1  0  0  0
 21 23  1  0  0  0
 22 24  1  0  0  0
 22 25  1  0  0  0
M  END
> <minimizedAffinity>
-5.82450

> <CNNscore>
0.4387639761

> <CNNaffinity>
7.3210387230

> <CNN_VS>
3.2122080326

> <CNNaffinity_variance>
0.4732330441

$$$$
[H]c1c2c(c3c([H])nn([H])c3c1[H])C([H])([H])[C@@]1(C([H])([H])C([H])([H])C([H])([H])[H])C2=C(C(=O)N([H])N([H])[H])C(=O)C([H])([H])C1([H])[H]


 28 31  0  0  0  0  0  0  0  0999 V2000
   11.2593   44.4770  130.7518 C   0  0  0  0  0  0  0  0  0  0  0  0
   11.8979   45.1525  131.9828 C   0  0  0  0  0  0  0  0  0  0  0  0
   10.6706   45.4416  132.7941 C   0  0  0  0  0  0  0  0  0  0  0  0
    9.6584   45.6631  131.8673 C   0  0  0  0  0  0  0  0  0  0  0  0
    8.3586   45.9211  132.2689 C   0  0  0  0  0  0  0  0  0  0  0  0
    8.0321   45.9706  133.6120 C   0  0  0  0  0  0  0  0  0  0  0  0
    9.0520   45.7510  134.5156 C   0  0  0  0  0  0  0  0  0  0  0  0
    9.0665   45.7310  135.8750 N   0  0  0  0  0  0  0  0  0  0  0  0
   10.2911   45.4750  136.2928 N   0  0  0  0  0  0  0  0  0  0  0  0
   11.1235   45.3177  135.2455 C   0  0  0  0  0  0  0  0  0  0  0  0
   10.3555   45.4889  134.1333 C   0  0  0  0  0  0  0  0  0  0  0  0
   10.2411   45.5603  130.5290 C   0  0  0  0  0  0  0  0  0  0  0  0
    9.9139   46.1151  129.4106 C   0  0  0  0  0  0  0  0  0  0  0  0
   10.6327   45.5836  128.1876 C   0  0  0  0  0  0  0  0  0  0  0  0
   10.0461   45.6020  127.0922 O   0  0  0  0  0  0  0  0  0  0  0  0
   12.0164   45.0719  128.4090 C   0  0  0  0  0  0  0  0  0  0  0  0
   12.1521   44.2453  129.6250 C   0  0  0  0  0  0  0  0  0  0  0  0
    8.2353   45.8934  136.4964 H   0  0  0  0  0  0  0  0  0  0  0  0
    9.1362   47.3223  129.2000 C   0  0  0  0  0  0  0  0  0  0  0  0
    9.6397   48.4385  129.6404 O   0  0  0  0  0  0  0  0  0  0  0  0
    7.8994   47.4626  128.6009 N   0  0  0  0  0  0  0  0  0  0  0  0
    7.3011   48.7541  128.4766 N   0  0  0  0  0  0  0  0  0  0  0  0
    7.3104   46.7095  128.2682 H   0  0  0  0  0  0  0  0  0  0  0  0
    7.7198   49.4092  129.1651 H   0  0  0  0  0  0  0  0  0  0  0  0
    6.2821   48.6898  128.6998 H   0  0  0  0  0  0  0  0  0  0  0  0
   10.5794   43.2301  131.2424 C   0  0  0  0  0  0  0  0  0  0  0  0
    8.2785   42.5280  130.5885 C   0  0  0  0  0  0  0  0  0  0  0  0
    9.7532   42.5812  130.1814 C   0  0  0  0  0  0  0  0  0  0  0  0
 27 28  1  0  0  0
 28 26  1  0  0  0
  1 26  1  0  0  0
  1  2  1  0  0  0
  2  3  1  0  0  0
  3  4  2  0  0  0
  4  5  1  0  0  0
  5  6  2  0  0  0
  6  7  1  0  0  0
  7  8  1  0  0  0
  8  9  1  0  0  0
  9 10  2  0  0  0
 10 11  1  0  0  0
  4 12  1  0  0  0
 12 13  2  0  0  0
 13 14  1  0  0  0
 14 15  2  0  0  0
 14 16  1  0  0  0
 16 17  1  0  0  0
 13 19  1  0  0  0
 19 20  2  0  0  0
 19 21  1  0  0  0
 21 22  1  0  0  0
 12  1  1  0  0  0
 17  1  1  0  0  0
 11  3  1  0  0  0
 11  7  2  0  0  0
  8 18  1  0  0  0
 21 23  1  0  0  0
 22 24  1  0  0  0
 22 25  1  0  0  0
M  END
> <minimizedAffinity>
-3.56549

> <CNNscore>
0.2517239749

> <CNNaffinity>
6.9842286110

> <CNN_VS>
1.7580977678

> <CNNaffinity_variance>
0.2323952466

$$$$
[H]c1c2c(c3c([H])nn([H])c3c1[H])C([H])([H])[C@@]1(C([H])([H])C([H])([H])C([H])([H])[H])C2=C(C(=O)N([H])N([H])[H])C(=O)C([H])([H])C1([H])[H]


 28 31  0  0  0  0  0  0  0  0999 V2000
    8.5917   45.8975  130.1423 C   0  0  0  0  0  0  0  0  0  0  0  0
   10.0006   45.3446  129.8440 C   0  0  0  0  0  0  0  0  0  0  0  0
   10.5593   45.2769  131.2338 C   0  0  0  0  0  0  0  0  0  0  0  0
    9.9521   46.3172  131.9276 C   0  0  0  0  0  0  0  0  0  0  0  0
   10.2058   46.5305  133.2720 C   0  0  0  0  0  0  0  0  0  0  0  0
   11.0799   45.7115  133.9634 C   0  0  0  0  0  0  0  0  0  0  0  0
   11.6744   44.6866  133.2555 C   0  0  0  0  0  0  0  0  0  0  0  0
   12.5611   43.7259  133.6287 N   0  0  0  0  0  0  0  0  0  0  0  0
   12.8394   42.9636  132.5889 N   0  0  0  0  0  0  0  0  0  0  0  0
   12.1601   43.3808  131.5031 C   0  0  0  0  0  0  0  0  0  0  0  0
   11.4311   44.4562  131.9132 C   0  0  0  0  0  0  0  0  0  0  0  0
    9.0816   47.0343  130.9952 C   0  0  0  0  0  0  0  0  0  0  0  0
    8.6983   48.2662  130.9609 C   0  0  0  0  0  0  0  0  0  0  0  0
    7.6106   48.5798  129.9541 C   0  0  0  0  0  0  0  0  0  0  0  0
    6.8087   49.4957  130.2036 O   0  0  0  0  0  0  0  0  0  0  0  0
    7.5958   47.7417  128.7200 C   0  0  0  0  0  0  0  0  0  0  0  0
    7.8146   46.3047  128.9801 C   0  0  0  0  0  0  0  0  0  0  0  0
   12.9627   43.6074  134.5922 H   0  0  0  0  0  0  0  0  0  0  0  0
    9.3244   49.4198  131.5804 C   0  0  0  0  0  0  0  0  0  0  0  0
   10.0293   50.1981  130.8119 O   0  0  0  0  0  0  0  0  0  0  0  0
    9.2963   49.8142  132.9040 N   0  0  0  0  0  0  0  0  0  0  0  0
    9.9733   51.0028  133.3164 N   0  0  0  0  0  0  0  0  0  0  0  0
    8.8729   49.3032  133.6684 H   0  0  0  0  0  0  0  0  0  0  0  0
   10.7034   51.2567  132.6228 H   0  0  0  0  0  0  0  0  0  0  0  0
   10.4634   50.8289  134.2229 H   0  0  0  0  0  0  0  0  0  0  0  0
    7.8960   44.8786  130.9998 C   0  0  0  0  0  0  0  0  0  0  0  0
    8.3800   42.5651  131.7923 C   0  0  0  0  0  0  0  0  0  0  0  0
    8.2024   43.4796  130.5776 C   0  0  0  0  0  0  0  0  0  0  0  0
 27 28  1  0  0  0
 28 26  1  0  0  0
  1 26  1  0  0  0
  1  2  1  0  0  0
  2  3  1  0  0  0
  3  4  2  0  0  0
  4  5  1  0  0  0
  5  6  2  0  0  0
  6  7  1  0  0  0
  7  8  1  0  0  0
  8  9  1  0  0  0
  9 10  2  0  0  0
 10 11  1  0  0  0
  4 12  1  0  0  0
 12 13  2  0  0  0
 13 14  1  0  0  0
 14 15  2  0  0  0
 14 16  1  0  0  0
 16 17  1  0  0  0
 13 19  1  0  0  0
 19 20  2  0  0  0
 19 21  1  0  0  0
 21 22  1  0  0  0
 12  1  1  0  0  0
 17  1  1  0  0  0
 11  3  1  0  0  0
 11  7  2  0  0  0
  8 18  1  0  0  0
 21 23  1  0  0  0
 22 24  1  0  0  0
 22 25  1  0  0  0
M  END
> <minimizedAffinity>
-6.07475

> <CNNscore>
0.2075309157

> <CNNaffinity>
6.9826951027

> <CNN_VS>
1.4491250515

> <CNNaffinity_variance>
0.2046196908

$$$$
[H]c1c2c(c3c([H])nn([H])c3c1[H])C([H])([H])[C@@]1(C([H])([H])C([H])([H])C([H])([H])[H])C2=C(C(=O)N([H])N([H])[H])C(=O)C([H])([H])C1([H])[H]


 28 31  0  0  0  0  0  0  0  0999 V2000
    9.5304   45.4559  130.0656 C   0  0  0  0  0  0  0  0  0  0  0  0
   10.9008   45.2634  130.7470 C   0  0  0  0  0  0  0  0  0  0  0  0
   10.5054   45.4112  132.1858 C   0  0  0  0  0  0  0  0  0  0  0  0
    9.4350   46.2981  132.1858 C   0  0  0  0  0  0  0  0  0  0  0  0
    8.7817   46.6378  133.3586 C   0  0  0  0  0  0  0  0  0  0  0  0
    9.1831   46.1037  134.5696 C   0  0  0  0  0  0  0  0  0  0  0  0
   10.2495   45.2278  134.5480 C   0  0  0  0  0  0  0  0  0  0  0  0
   10.8775   44.5436  135.5410 N   0  0  0  0  0  0  0  0  0  0  0  0
   11.8540   43.8241  135.0228 N   0  0  0  0  0  0  0  0  0  0  0  0
   11.9118   43.9990  133.6884 C   0  0  0  0  0  0  0  0  0  0  0  0
   10.9124   44.8743  133.3863 C   0  0  0  0  0  0  0  0  0  0  0  0
    9.1999   46.7222  130.8052 C   0  0  0  0  0  0  0  0  0  0  0  0
    8.7114   47.8133  130.3189 C   0  0  0  0  0  0  0  0  0  0  0  0
    8.4217   47.7887  128.8321 C   0  0  0  0  0  0  0  0  0  0  0  0
    7.4903   48.4832  128.3912 O   0  0  0  0  0  0  0  0  0  0  0  0
    9.3011   46.9118  128.0055 C   0  0  0  0  0  0  0  0  0  0  0  0
    9.5601   45.5925  128.6161 C   0  0  0  0  0  0  0  0  0  0  0  0
   10.6267   44.5806  136.5605 H   0  0  0  0  0  0  0  0  0  0  0  0
    8.6252   49.1183  130.9484 C   0  0  0  0  0  0  0  0  0  0  0  0
    7.4459   49.6623  131.0303 O   0  0  0  0  0  0  0  0  0  0  0  0
    9.6395   49.8965  131.4716 N   0  0  0  0  0  0  0  0  0  0  0  0
    9.3436   51.1606  132.0680 N   0  0  0  0  0  0  0  0  0  0  0  0
   10.6295   49.6887  131.4326 H   0  0  0  0  0  0  0  0  0  0  0  0
    8.4243   51.5076  131.7317 H   0  0  0  0  0  0  0  0  0  0  0  0
   10.0594   51.8623  131.7723 H   0  0  0  0  0  0  0  0  0  0  0  0
    8.6453   44.3397  130.5430 C   0  0  0  0  0  0  0  0  0  0  0  0
    9.7375   42.1241  130.8798 C   0  0  0  0  0  0  0  0  0  0  0  0
    8.9867   43.0340  129.9042 C   0  0  0  0  0  0  0  0  0  0  0  0
 27 28  1  0  0  0
 28 26  1  0  0  0
  1 26  1  0  0  0
  1  2  1  0  0  0
  2  3  1  0  0  0
  3  4  2  0  0  0
  4  5  1  0  0  0
  5  6  2  0  0  0
  6  7  1  0  0  0
  7  8  1  0  0  0
  8  9  1  0  0  0
  9 10  2  0  0  0
 10 11  1  0  0  0
  4 12  1  0  0  0
 12 13  2  0  0  0
 13 14  1  0  0  0
 14 15  2  0  0  0
 14 16  1  0  0  0
 16 17  1  0  0  0
 13 19  1  0  0  0
 19 20  2  0  0  0
 19 21  1  0  0  0
 21 22  1  0  0  0
 12  1  1  0  0  0
 17  1  1  0  0  0
 11  3  1  0  0  0
 11  7  2  0  0  0
  8 18  1  0  0  0
 21 23  1  0  0  0
 22 24  1  0  0  0
 22 25  1  0  0  0
M  END
> <minimizedAffinity>
-4.80503

> <CNNscore>
0.1788315177

> <CNNaffinity>
7.1012892723

> <CNN_VS>
1.2699342966

> <CNNaffinity_variance>
0.3799664080

$$$$
[H]Oc1c([H])c([H])c(-c2c([H])c([H])c(O[H])c([H])c2Oc2c([H])c([H])c([H])c([H])c2[H])c([H])c1[H]


 23 25  0  0  0  0  0  0  0  0999 V2000
    7.0115   51.5254  129.4617 O   0  0  0  0  0  0  0  0  0  0  0  0
    7.4697   50.2083  129.5749 C   0  0  0  0  0  0  0  0  0  0  0  0
    6.8589   49.2530  128.7708 C   0  0  0  0  0  0  0  0  0  0  0  0
    7.3113   47.9703  128.8845 C   0  0  0  0  0  0  0  0  0  0  0  0
    8.3430   47.5849  129.7587 C   0  0  0  0  0  0  0  0  0  0  0  0
    8.9158   48.5378  130.5313 C   0  0  0  0  0  0  0  0  0  0  0  0
    8.4727   49.8864  130.4398 C   0  0  0  0  0  0  0  0  0  0  0  0
    7.3707   52.2910  129.9836 H   0  0  0  0  0  0  0  0  0  0  0  0
    8.7830   46.1705  129.6861 C   0  0  0  0  0  0  0  0  0  0  0  0
    8.0063   45.2185  130.3619 C   0  0  0  0  0  0  0  0  0  0  0  0
    8.3635   43.8929  130.3412 C   0  0  0  0  0  0  0  0  0  0  0  0
    9.4825   43.4772  129.6618 C   0  0  0  0  0  0  0  0  0  0  0  0
    9.8483   42.1219  129.6404 O   0  0  0  0  0  0  0  0  0  0  0  0
   10.2302   44.4298  129.0054 C   0  0  0  0  0  0  0  0  0  0  0  0
    9.8920   45.7703  129.0107 C   0  0  0  0  0  0  0  0  0  0  0  0
   10.4635   41.7694  130.3627 H   0  0  0  0  0  0  0  0  0  0  0  0
    9.9130   48.2851  131.4171 O   0  0  0  0  0  0  0  0  0  0  0  0
    9.9961   47.4014  132.4502 C   0  0  0  0  0  0  0  0  0  0  0  0
   10.9115   46.4175  132.6743 C   0  0  0  0  0  0  0  0  0  0  0  0
   10.8654   45.5944  133.7709 C   0  0  0  0  0  0  0  0  0  0  0  0
    9.8590   45.7474  134.7046 C   0  0  0  0  0  0  0  0  0  0  0  0
    8.9194   46.7317  134.5080 C   0  0  0  0  0  0  0  0  0  0  0  0
    8.9760   47.5439  133.4129 C   0  0  0  0  0  0  0  0  0  0  0  0
  1  2  1  0  0  0
  2  3  2  0  0  0
  3  4  1  0  0  0
  4  5  2  0  0  0
  5  9  1  0  0  0
  9 10  2  0  0  0
 10 11  1  0  0  0
 11 12  2  0  0  0
 12 13  1  0  0  0
 12 14  1  0  0  0
 14 15  2  0  0  0
  5  6  1  0  0  0
  6 17  1  0  0  0
 17 18  1  0  0  0
 18 19  2  0  0  0
 19 20  1  0  0  0
 20 21  2  0  0  0
 21 22  1  0  0  0
 22 23  2  0  0  0
  6  7  2  0  0  0
  7  2  1  0  0  0
 15  9  1  0  0  0
 23 18  1  0  0  0
  1  8  1  0  0  0
 13 16  1  0  0  0
M  END
> <minimizedAffinity>
-9.40331

> <CNNscore>
0.8046429753

> <CNNaffinity>
7.3359613419

> <CNN_VS>
5.9028296471

> <CNNaffinity_variance>
0.5652840734

$$$$
[H]Oc1c([H])c([H])c(-c2c([H])c([H])c(O[H])c([H])c2Oc2c([H])c([H])c([H])c([H])c2[H])c([H])c1[H]


 23 25  0  0  0  0  0  0  0  0999 V2000
    6.9960   51.5261  129.6030 O   0  0  0  0  0  0  0  0  0  0  0  0
    7.4484   50.2047  129.6853 C   0  0  0  0  0  0  0  0  0  0  0  0
    6.8415   49.2735  128.8505 C   0  0  0  0  0  0  0  0  0  0  0  0
    7.2883   47.9865  128.9342 C   0  0  0  0  0  0  0  0  0  0  0  0
    8.3106   47.5741  129.8070 C   0  0  0  0  0  0  0  0  0  0  0  0
    8.8797   48.5039  130.6099 C   0  0  0  0  0  0  0  0  0  0  0  0
    8.4422   49.8561  130.5504 C   0  0  0  0  0  0  0  0  0  0  0  0
    7.3531   52.2763  130.1483 H   0  0  0  0  0  0  0  0  0  0  0  0
    8.7461   46.1604  129.7008 C   0  0  0  0  0  0  0  0  0  0  0  0
    7.9964   45.2011  130.3964 C   0  0  0  0  0  0  0  0  0  0  0  0
    8.3515   43.8757  130.3464 C   0  0  0  0  0  0  0  0  0  0  0  0
    9.4419   43.4673  129.6179 C   0  0  0  0  0  0  0  0  0  0  0  0
    9.8054   42.1122  129.5665 O   0  0  0  0  0  0  0  0  0  0  0  0
   10.1634   44.4270  128.9429 C   0  0  0  0  0  0  0  0  0  0  0  0
    9.8268   45.7675  128.9769 C   0  0  0  0  0  0  0  0  0  0  0  0
   10.4489   41.7514  130.2595 H   0  0  0  0  0  0  0  0  0  0  0  0
    9.8678   48.2239  131.4977 O   0  0  0  0  0  0  0  0  0  0  0  0
    9.9155   47.3568  132.5469 C   0  0  0  0  0  0  0  0  0  0  0  0
    9.0980   47.2689  133.6333 C   0  0  0  0  0  0  0  0  0  0  0  0
    9.2727   46.3341  134.6220 C   0  0  0  0  0  0  0  0  0  0  0  0
   10.3138   45.4300  134.5383 C   0  0  0  0  0  0  0  0  0  0  0  0
   11.1569   45.4917  133.4540 C   0  0  0  0  0  0  0  0  0  0  0  0
   10.9727   46.4265  132.4771 C   0  0  0  0  0  0  0  0  0  0  0  0
  1  2  1  0  0  0
  2  3  2  0  0  0
  3  4  1  0  0  0
  4  5  2  0  0  0
  5  9  1  0  0  0
  9 10  2  0  0  0
 10 11  1  0  0  0
 11 12  2  0  0  0
 12 13  1  0  0  0
 12 14  1  0  0  0
 14 15  2  0  0  0
  5  6  1  0  0  0
  6 17  1  0  0  0
 17 18  1  0  0  0
 18 19  2  0  0  0
 19 20  1  0  0  0
 20 21  2  0  0  0
 21 22  1  0  0  0
 22 23  2  0  0  0
  6  7  2  0  0  0
  7  2  1  0  0  0
 15  9  1  0  0  0
 23 18  1  0  0  0
  1  8  1  0  0  0
 13 16  1  0  0  0
M  END
> <minimizedAffinity>
-9.31409

> <CNNscore>
0.8039686680

> <CNNaffinity>
7.3721742630

> <CNN_VS>
5.9269971848

> <CNNaffinity_variance>
0.6863820553

$$$$
[H]Oc1c([H])c([H])c(-c2c([H])c([H])c(O[H])c([H])c2Oc2c([H])c([H])c([H])c([H])c2[H])c([H])c1[H]


 23 25  0  0  0  0  0  0  0  0999 V2000
    6.9908   51.0149  128.9506 O   0  0  0  0  0  0  0  0  0  0  0  0
    7.5729   49.9847  129.6972 C   0  0  0  0  0  0  0  0  0  0  0  0
    8.3228   50.3525  130.8084 C   0  0  0  0  0  0  0  0  0  0  0  0
    8.8867   49.3431  131.5336 C   0  0  0  0  0  0  0  0  0  0  0  0
    8.7444   47.9817  131.2118 C   0  0  0  0  0  0  0  0  0  0  0  0
    8.0108   47.6557  130.1216 C   0  0  0  0  0  0  0  0  0  0  0  0
    7.4057   48.6797  129.3414 C   0  0  0  0  0  0  0  0  0  0  0  0
    6.4350   50.8744  128.1388 H   0  0  0  0  0  0  0  0  0  0  0  0
    9.3367   47.0082  132.1609 C   0  0  0  0  0  0  0  0  0  0  0  0
   10.7145   46.7673  132.0609 C   0  0  0  0  0  0  0  0  0  0  0  0
   11.3235   45.8712  132.9044 C   0  0  0  0  0  0  0  0  0  0  0  0
   10.5980   45.1978  133.8566 C   0  0  0  0  0  0  0  0  0  0  0  0
   11.2201   44.2813  134.7192 O   0  0  0  0  0  0  0  0  0  0  0  0
    9.2463   45.4503  133.9364 C   0  0  0  0  0  0  0  0  0  0  0  0
    8.6094   46.3475  133.0994 C   0  0  0  0  0  0  0  0  0  0  0  0
   11.2811   43.3102  134.4403 H   0  0  0  0  0  0  0  0  0  0  0  0
    7.8101   46.3784  129.7079 O   0  0  0  0  0  0  0  0  0  0  0  0
    8.6874   45.3744  129.4299 C   0  0  0  0  0  0  0  0  0  0  0  0
    8.6149   44.0511  129.7460 C   0  0  0  0  0  0  0  0  0  0  0  0
    9.5872   43.1485  129.3968 C   0  0  0  0  0  0  0  0  0  0  0  0
   10.6985   43.5715  128.6938 C   0  0  0  0  0  0  0  0  0  0  0  0
   10.8019   44.9009  128.3589 C   0  0  0  0  0  0  0  0  0  0  0  0
    9.8280   45.7890  128.7122 C   0  0  0  0  0  0  0  0  0  0  0  0
  1  2  1  0  0  0
  2  3  2  0  0  0
  3  4  1  0  0  0
  4  5  2  0  0  0
  5  9  1  0  0  0
  9 10  2  0  0  0
 10 11  1  0  0  0
 11 12  2  0  0  0
 12 13  1  0  0  0
 12 14  1  0  0  0
 14 15  2  0  0  0
  5  6  1  0  0  0
  6 17  1  0  0  0
 17 18  1  0  0  0
 18 19  2  0  0  0
 19 20  1  0  0  0
 20 21  2  0  0  0
 21 22  1  0  0  0
 22 23  2  0  0  0
  6  7  2  0  0  0
  7  2  1  0  0  0
 15  9  1  0  0  0
 23 18  1  0  0  0
  1  8  1  0  0  0
 13 16  1  0  0  0
M  END
> <minimizedAffinity>
-9.79715

> <CNNscore>
0.7064318657

> <CNNaffinity>
7.1489572525

> <CNN_VS>
5.0502510071

> <CNNaffinity_variance>
0.2426594794

$$$$
[H]Oc1c([H])c([H])c(-c2c([H])c([H])c(O[H])c([H])c2Oc2c([H])c([H])c([H])c([H])c2[H])c([H])c1[H]


 23 25  0  0  0  0  0  0  0  0999 V2000
    6.9708   50.9560  128.7110 O   0  0  0  0  0  0  0  0  0  0  0  0
    7.5438   49.9507  129.4974 C   0  0  0  0  0  0  0  0  0  0  0  0
    8.2185   50.3506  130.6452 C   0  0  0  0  0  0  0  0  0  0  0  0
    8.7739   49.3652  131.4091 C   0  0  0  0  0  0  0  0  0  0  0  0
    8.6940   47.9978  131.0917 C   0  0  0  0  0  0  0  0  0  0  0  0
    8.0331   47.6404  129.9654 C   0  0  0  0  0  0  0  0  0  0  0  0
    7.4393   48.6385  129.1442 C   0  0  0  0  0  0  0  0  0  0  0  0
    6.4659   50.7917  127.8710 H   0  0  0  0  0  0  0  0  0  0  0  0
    9.2641   47.0509  132.0804 C   0  0  0  0  0  0  0  0  0  0  0  0
   10.6514   46.8485  132.0534 C   0  0  0  0  0  0  0  0  0  0  0  0
   11.2414   45.9784  132.9366 C   0  0  0  0  0  0  0  0  0  0  0  0
   10.4873   45.2937  133.8580 C   0  0  0  0  0  0  0  0  0  0  0  0
   11.0900   44.4037  134.7613 O   0  0  0  0  0  0  0  0  0  0  0  0
    9.1267   45.5081  133.8661 C   0  0  0  0  0  0  0  0  0  0  0  0
    8.5085   46.3786  132.9879 C   0  0  0  0  0  0  0  0  0  0  0  0
   11.1924   43.4321  134.4966 H   0  0  0  0  0  0  0  0  0  0  0  0
    7.8974   46.3543  129.5523 O   0  0  0  0  0  0  0  0  0  0  0  0
    8.8121   45.3566  129.4012 C   0  0  0  0  0  0  0  0  0  0  0  0
   10.0136   45.3757  128.7590 C   0  0  0  0  0  0  0  0  0  0  0  0
   10.8359   44.2799  128.6868 C   0  0  0  0  0  0  0  0  0  0  0  0
   10.4549   43.0930  129.2821 C   0  0  0  0  0  0  0  0  0  0  0  0
    9.2481   43.0407  129.9386 C   0  0  0  0  0  0  0  0  0  0  0  0
    8.4389   44.1376  130.0032 C   0  0  0  0  0  0  0  0  0  0  0  0
  1  2  1  0  0  0
  2  3  2  0  0  0
  3  4  1  0  0  0
  4  5  2  0  0  0
  5  9  1  0  0  0
  9 10  2  0  0  0
 10 11  1  0  0  0
 11 12  2  0  0  0
 12 13  1  0  0  0
 12 14  1  0  0  0
 14 15  2  0  0  0
  5  6  1  0  0  0
  6 17  1  0  0  0
 17 18  1  0  0  0
 18 19  2  0  0  0
 19 20  1  0  0  0
 20 21  2  0  0  0
 21 22  1  0  0  0
 22 23  2  0  0  0
  6  7  2  0  0  0
  7  2  1  0  0  0
 15  9  1  0  0  0
 23 18  1  0  0  0
  1  8  1  0  0  0
 13 16  1  0  0  0
M  END
> <minimizedAffinity>
-9.64748

> <CNNscore>
0.7008009553

> <CNNaffinity>
7.1663398743

> <CNN_VS>
5.0221776962

> <CNNaffinity_variance>
0.2408878803

$$$$
[H]Oc1c([H])c([H])c(-c2c([H])c([H])c(O[H])c([H])c2Oc2c([H])c([H])c([H])c([H])c2[H])c([H])c1[H]


 23 25  0  0  0  0  0  0  0  0999 V2000
   11.0315   44.5248  135.3522 O   0  0  0  0  0  0  0  0  0  0  0  0
   10.4778   45.3314  134.3521 C   0  0  0  0  0  0  0  0  0  0  0  0
    9.4402   46.1789  134.7230 C   0  0  0  0  0  0  0  0  0  0  0  0
    8.9053   46.9645  133.7433 C   0  0  0  0  0  0  0  0  0  0  0  0
    9.3486   46.9525  132.4090 C   0  0  0  0  0  0  0  0  0  0  0  0
   10.3586   46.1136  132.0783 C   0  0  0  0  0  0  0  0  0  0  0  0
   10.9431   45.2806  133.0721 C   0  0  0  0  0  0  0  0  0  0  0  0
   11.7752   43.8819  135.2067 H   0  0  0  0  0  0  0  0  0  0  0  0
    8.7287   47.9404  131.4930 C   0  0  0  0  0  0  0  0  0  0  0  0
    9.1080   49.2823  131.6402 C   0  0  0  0  0  0  0  0  0  0  0  0
    8.5649   50.2480  130.8292 C   0  0  0  0  0  0  0  0  0  0  0  0
    7.6448   49.9190  129.8640 C   0  0  0  0  0  0  0  0  0  0  0  0
    7.0890   50.9061  129.0345 O   0  0  0  0  0  0  0  0  0  0  0  0
    7.2872   48.5949  129.7376 C   0  0  0  0  0  0  0  0  0  0  0  0
    7.8192   47.6037  130.5413 C   0  0  0  0  0  0  0  0  0  0  0  0
    6.2398   51.3716  129.3288 H   0  0  0  0  0  0  0  0  0  0  0  0
   10.8648   46.0083  130.8231 O   0  0  0  0  0  0  0  0  0  0  0  0
   10.5878   45.1395  129.8114 C   0  0  0  0  0  0  0  0  0  0  0  0
   11.2417   44.9506  128.6311 C   0  0  0  0  0  0  0  0  0  0  0  0
   10.8401   44.0292  127.6974 C   0  0  0  0  0  0  0  0  0  0  0  0
    9.7285   43.2451  127.9380 C   0  0  0  0  0  0  0  0  0  0  0  0
    9.0463   43.4108  129.1201 C   0  0  0  0  0  0  0  0  0  0  0  0
    9.4557   44.3310  130.0408 C   0  0  0  0  0  0  0  0  0  0  0  0
  1  2  1  0  0  0
  2  3  2  0  0  0
  3  4  1  0  0  0
  4  5  2  0  0  0
  5  9  1  0  0  0
  9 10  2  0  0  0
 10 11  1  0  0  0
 11 12  2  0  0  0
 12 13  1  0  0  0
 12 14  1  0  0  0
 14 15  2  0  0  0
  5  6  1  0  0  0
  6 17  1  0  0  0
 17 18  1  0  0  0
 18 19  2  0  0  0
 19 20  1  0  0  0
 20 21  2  0  0  0
 21 22  1  0  0  0
 22 23  2  0  0  0
  6  7  2  0  0  0
  7  2  1  0  0  0
 15  9  1  0  0  0
 23 18  1  0  0  0
  1  8  1  0  0  0
 13 16  1  0  0  0
M  END
> <minimizedAffinity>
-9.25959

> <CNNscore>
0.6489637494

> <CNNaffinity>
7.1155014038

> <CNN_VS>
4.6177024841

> <CNNaffinity_variance>
0.3987575173

$$$$
[H]Oc1c([H])c([H])c(-c2c([H])c([H])c(O[H])c([H])c2Oc2c([H])c([H])c([H])c([H])c2[H])c([H])c1[H]


 23 25  0  0  0  0  0  0  0  0999 V2000
    7.3868   49.3033  127.6904 O   0  0  0  0  0  0  0  0  0  0  0  0
    7.9429   48.2666  128.4476 C   0  0  0  0  0  0  0  0  0  0  0  0
    7.7526   46.9700  127.9839 C   0  0  0  0  0  0  0  0  0  0  0  0
    8.2989   45.9631  128.7259 C   0  0  0  0  0  0  0  0  0  0  0  0
    9.0275   46.1772  129.9093 C   0  0  0  0  0  0  0  0  0  0  0  0
    9.1927   47.4512  130.3369 C   0  0  0  0  0  0  0  0  0  0  0  0
    8.6397   48.5277  129.5895 C   0  0  0  0  0  0  0  0  0  0  0  0
    7.4573   50.2672  127.9218 H   0  0  0  0  0  0  0  0  0  0  0  0
    9.6394   44.9822  130.5393 C   0  0  0  0  0  0  0  0  0  0  0  0
    8.8981   44.3265  131.5327 C   0  0  0  0  0  0  0  0  0  0  0  0
    9.4110   43.2188  132.1614 C   0  0  0  0  0  0  0  0  0  0  0  0
   10.6532   42.7352  131.8305 C   0  0  0  0  0  0  0  0  0  0  0  0
   11.1782   41.6027  132.4730 O   0  0  0  0  0  0  0  0  0  0  0  0
   11.3633   43.3954  130.8521 C   0  0  0  0  0  0  0  0  0  0  0  0
   10.8695   44.5123  130.2041 C   0  0  0  0  0  0  0  0  0  0  0  0
   11.7278   41.7276  133.3138 H   0  0  0  0  0  0  0  0  0  0  0  0
    9.8686   47.7807  131.4671 O   0  0  0  0  0  0  0  0  0  0  0  0
    9.9769   47.1468  132.6677 C   0  0  0  0  0  0  0  0  0  0  0  0
   11.0329   46.4644  133.1927 C   0  0  0  0  0  0  0  0  0  0  0  0
   10.9941   45.8696  134.4283 C   0  0  0  0  0  0  0  0  0  0  0  0
    9.8481   45.9504  135.1954 C   0  0  0  0  0  0  0  0  0  0  0  0
    8.7645   46.6324  134.6946 C   0  0  0  0  0  0  0  0  0  0  0  0
    8.8155   47.2196  133.4638 C   0  0  0  0  0  0  0  0  0  0  0  0
  1  2  1  0  0  0
  2  3  2  0  0  0
  3  4  1  0  0  0
  4  5  2  0  0  0
  5  9  1  0  0  0
  9 10  2  0  0  0
 10 11  1  0  0  0
 11 12  2  0  0  0
 12 13  1  0  0  0
 12 14  1  0  0  0
 14 15  2  0  0  0
  5  6  1  0  0  0
  6 17  1  0  0  0
 17 18  1  0  0  0
 18 19  2  0  0  0
 19 20  1  0  0  0
 20 21  2  0  0  0
 21 22  1  0  0  0
 22 23  2  0  0  0
  6  7  2  0  0  0
  7  2  1  0  0  0
 15  9  1  0  0  0
 23 18  1  0  0  0
  1  8  1  0  0  0
 13 16  1  0  0  0
M  END
> <minimizedAffinity>
-4.60728

> <CNNscore>
0.5973497629

> <CNNaffinity>
7.0991377831

> <CNN_VS>
4.2406682968

> <CNNaffinity_variance>
0.4935104251

$$$$
[H]Oc1c([H])c([H])c(-c2c([H])c([H])c(O[H])c([H])c2Oc2c([H])c([H])c([H])c([H])c2[H])c([H])c1[H]


 23 25  0  0  0  0  0  0  0  0999 V2000
    5.4248   48.7177  128.6115 O   0  0  0  0  0  0  0  0  0  0  0  0
    6.4458   48.1659  129.3929 C   0  0  0  0  0  0  0  0  0  0  0  0
    7.3979   49.0412  129.9024 C   0  0  0  0  0  0  0  0  0  0  0  0
    8.3904   48.4971  130.6653 C   0  0  0  0  0  0  0  0  0  0  0  0
    8.4873   47.1236  130.9498 C   0  0  0  0  0  0  0  0  0  0  0  0
    7.5467   46.2962  130.4362 C   0  0  0  0  0  0  0  0  0  0  0  0
    6.4955   46.8261  129.6378 C   0  0  0  0  0  0  0  0  0  0  0  0
    4.6909   48.1927  128.1952 H   0  0  0  0  0  0  0  0  0  0  0  0
    9.5685   46.7109  131.8773 C   0  0  0  0  0  0  0  0  0  0  0  0
   10.7841   46.3035  131.3095 C   0  0  0  0  0  0  0  0  0  0  0  0
   11.8228   45.9013  132.1124 C   0  0  0  0  0  0  0  0  0  0  0  0
   11.6907   45.8906  133.4795 C   0  0  0  0  0  0  0  0  0  0  0  0
   12.7524   45.4794  134.3010 O   0  0  0  0  0  0  0  0  0  0  0  0
   10.4877   46.2948  134.0150 C   0  0  0  0  0  0  0  0  0  0  0  0
    9.4269   46.7043  133.2287 C   0  0  0  0  0  0  0  0  0  0  0  0
   12.8266   44.5017  134.5522 H   0  0  0  0  0  0  0  0  0  0  0  0
    7.5404   44.9534  130.6352 O   0  0  0  0  0  0  0  0  0  0  0  0
    8.5566   44.0686  130.8340 C   0  0  0  0  0  0  0  0  0  0  0  0
    9.4709   43.5887  129.9451 C   0  0  0  0  0  0  0  0  0  0  0  0
   10.4465   42.6894  130.2940 C   0  0  0  0  0  0  0  0  0  0  0  0
   10.5293   42.2341  131.5955 C   0  0  0  0  0  0  0  0  0  0  0  0
    9.6216   42.6993  132.5173 C   0  0  0  0  0  0  0  0  0  0  0  0
    8.6556   43.5937  132.1578 C   0  0  0  0  0  0  0  0  0  0  0  0
  1  2  1  0  0  0
  2  3  2  0  0  0
  3  4  1  0  0  0
  4  5  2  0  0  0
  5  9  1  0  0  0
  9 10  2  0  0  0
 10 11  1  0  0  0
 11 12  2  0  0  0
 12 13  1  0  0  0
 12 14  1  0  0  0
 14 15  2  0  0  0
  5  6  1  0  0  0
  6 17  1  0  0  0
 17 18  1  0  0  0
 18 19  2  0  0  0
 19 20  1  0  0  0
 20 21  2  0  0  0
 21 22  1  0  0  0
 22 23  2  0  0  0
  6  7  2  0  0  0
  7  2  1  0  0  0
 15  9  1  0  0  0
 23 18  1  0  0  0
  1  8  1  0  0  0
 13 16  1  0  0  0
M  END
> <minimizedAffinity>
-7.74492

> <CNNscore>
0.5305559039

> <CNNaffinity>
7.1351304054

> <CNN_VS>
3.7855856419

> <CNNaffinity_variance>
0.3754749894

$$$$
[H]Oc1c([H])c([H])c(-c2c([H])c([H])c(O[H])c([H])c2Oc2c([H])c([H])c([H])c([H])c2[H])c([H])c1[H]


 23 25  0  0  0  0  0  0  0  0999 V2000
   10.3614   42.2709  128.2937 O   0  0  0  0  0  0  0  0  0  0  0  0
    9.9469   43.5455  128.6949 C   0  0  0  0  0  0  0  0  0  0  0  0
   10.2366   44.6043  127.8421 C   0  0  0  0  0  0  0  0  0  0  0  0
    9.8283   45.8450  128.2383 C   0  0  0  0  0  0  0  0  0  0  0  0
    9.1443   46.0904  129.4420 C   0  0  0  0  0  0  0  0  0  0  0  0
    8.8799   45.0389  130.2529 C   0  0  0  0  0  0  0  0  0  0  0  0
    9.2879   43.7302  129.8736 C   0  0  0  0  0  0  0  0  0  0  0  0
   10.2108   41.4408  128.8189 H   0  0  0  0  0  0  0  0  0  0  0  0
    8.6830   47.4806  129.6737 C   0  0  0  0  0  0  0  0  0  0  0  0
    7.4593   47.8573  129.1020 C   0  0  0  0  0  0  0  0  0  0  0  0
    6.9794   49.1326  129.2717 C   0  0  0  0  0  0  0  0  0  0  0  0
    7.6857   50.0579  130.0007 C   0  0  0  0  0  0  0  0  0  0  0  0
    7.1956   51.3620  130.1744 O   0  0  0  0  0  0  0  0  0  0  0  0
    8.8851   49.6656  130.5528 C   0  0  0  0  0  0  0  0  0  0  0  0
    9.3900   48.3881  130.3969 C   0  0  0  0  0  0  0  0  0  0  0  0
    7.4471   52.0734  129.4998 H   0  0  0  0  0  0  0  0  0  0  0  0
    8.2344   45.1531  131.4418 O   0  0  0  0  0  0  0  0  0  0  0  0
    8.6725   45.5497  132.6689 C   0  0  0  0  0  0  0  0  0  0  0  0
    8.2246   46.5644  133.4601 C   0  0  0  0  0  0  0  0  0  0  0  0
    8.7722   46.8496  134.6852 C   0  0  0  0  0  0  0  0  0  0  0  0
    9.8237   46.0915  135.1625 C   0  0  0  0  0  0  0  0  0  0  0  0
   10.2991   45.0595  134.3884 C   0  0  0  0  0  0  0  0  0  0  0  0
    9.7460   44.7860  133.1712 C   0  0  0  0  0  0  0  0  0  0  0  0
  1  2  1  0  0  0
  2  3  2  0  0  0
  3  4  1  0  0  0
  4  5  2  0  0  0
  5  9  1  0  0  0
  9 10  2  0  0  0
 10 11  1  0  0  0
 11 12  2  0  0  0
 12 13  1  0  0  0
 12 14  1  0  0  0
 14 15  2  0  0  0
  5  6  1  0  0  0
  6 17  1  0  0  0
 17 18  1  0  0  0
 18 19  2  0  0  0
 19 20  1  0  0  0
 20 21  2  0  0  0
 21 22  1  0  0  0
 22 23  2  0  0  0
  6  7  2  0  0  0
  7  2  1  0  0  0
 15  9  1  0  0  0
 23 18  1  0  0  0
  1  8  1  0  0  0
 13 16  1  0  0  0
M  END
> <minimizedAffinity>
-7.45076

> <CNNscore>
0.4111275375

> <CNNaffinity>
6.7622461319

> <CNN_VS>
2.7801456451

> <CNNaffinity_variance>
0.3328376710

$$$$
[H]Oc1c([H])c([H])c(-c2c([H])c([H])c(O[H])c([H])c2Oc2c([H])c([H])c([H])c([H])c2[H])c([H])c1[H]


 23 25  0  0  0  0  0  0  0  0999 V2000
    8.7656   51.0890  131.2711 O   0  0  0  0  0  0  0  0  0  0  0  0
    8.9131   49.7159  131.0472 C   0  0  0  0  0  0  0  0  0  0  0  0
    7.9570   49.0969  130.2504 C   0  0  0  0  0  0  0  0  0  0  0  0
    8.1072   47.7576  130.0343 C   0  0  0  0  0  0  0  0  0  0  0  0
    9.1618   46.9975  130.5703 C   0  0  0  0  0  0  0  0  0  0  0  0
   10.0752   47.6286  131.3452 C   0  0  0  0  0  0  0  0  0  0  0  0
    9.9535   49.0241  131.5919 C   0  0  0  0  0  0  0  0  0  0  0  0
    9.3849   51.6373  131.8219 H   0  0  0  0  0  0  0  0  0  0  0  0
    9.2348   45.5755  130.1557 C   0  0  0  0  0  0  0  0  0  0  0  0
    8.5185   44.6437  130.9205 C   0  0  0  0  0  0  0  0  0  0  0  0
    8.5508   43.3102  130.5950 C   0  0  0  0  0  0  0  0  0  0  0  0
    9.2815   42.8668  129.5198 C   0  0  0  0  0  0  0  0  0  0  0  0
    9.3150   41.5034  129.1865 O   0  0  0  0  0  0  0  0  0  0  0  0
    9.9772   43.7999  128.7832 C   0  0  0  0  0  0  0  0  0  0  0  0
    9.9611   45.1479  129.0898 C   0  0  0  0  0  0  0  0  0  0  0  0
   10.0315   40.9169  129.5954 H   0  0  0  0  0  0  0  0  0  0  0  0
   11.1303   46.9995  131.9232 O   0  0  0  0  0  0  0  0  0  0  0  0
   11.1906   46.0843  132.9301 C   0  0  0  0  0  0  0  0  0  0  0  0
   12.1168   45.1117  133.1597 C   0  0  0  0  0  0  0  0  0  0  0  0
   12.0443   44.2525  134.2267 C   0  0  0  0  0  0  0  0  0  0  0  0
   10.9984   44.3551  135.1232 C   0  0  0  0  0  0  0  0  0  0  0  0
   10.0469   45.3266  134.9202 C   0  0  0  0  0  0  0  0  0  0  0  0
   10.1302   46.1752  133.8547 C   0  0  0  0  0  0  0  0  0  0  0  0
  1  2  1  0  0  0
  2  3  2  0  0  0
  3  4  1  0  0  0
  4  5  2  0  0  0
  5  9  1  0  0  0
  9 10  2  0  0  0
 10 11  1  0  0  0
 11 12  2  0  0  0
 12 13  1  0  0  0
 12 14  1  0  0  0
 14 15  2  0  0  0
  5  6  1  0  0  0
  6 17  1  0  0  0
 17 18  1  0  0  0
 18 19  2  0  0  0
 19 20  1  0  0  0
 20 21  2  0  0  0
 21 22  1  0  0  0
 22 23  2  0  0  0
  6  7  2  0  0  0
  7  2  1  0  0  0
 15  9  1  0  0  0
 23 18  1  0  0  0
  1  8  1  0  0  0
 13 16  1  0  0  0
M  END
> <minimizedAffinity>
-6.61189

> <CNNscore>
0.3726817667

> <CNNaffinity>
6.9102883339

> <CNN_VS>
2.5753383636

> <CNNaffinity_variance>
0.4142319262

$$$$
[H]Oc1c([H])c([H])c(-c2sc3c([H])c(O[H])c([H])c([H])c3c2C(=O)c2c([H])c([H])c([H])c(C(F)(F)F)c2[H])c([H])c1[H]


 31 34  0  0  0  0  0  0  0  0999 V2000
    8.7530   46.5739  130.2059 C   0  0  0  0  0  0  0  0  0  0  0  0
    7.8259   47.0314  128.8170 S   0  0  0  0  0  0  0  0  0  0  0  0
    7.6894   48.6846  129.1319 C   0  0  0  0  0  0  0  0  0  0  0  0
    7.0688   49.7361  128.4407 C   0  0  0  0  0  0  0  0  0  0  0  0
    7.1047   51.0241  128.9101 C   0  0  0  0  0  0  0  0  0  0  0  0
    6.5154   52.1191  128.2864 O   0  0  0  0  0  0  0  0  0  0  0  0
    7.7865   51.1859  130.0862 C   0  0  0  0  0  0  0  0  0  0  0  0
    8.3799   50.1798  130.7496 C   0  0  0  0  0  0  0  0  0  0  0  0
    8.3604   48.8547  130.3006 C   0  0  0  0  0  0  0  0  0  0  0  0
    8.9227   47.7611  130.8771 C   0  0  0  0  0  0  0  0  0  0  0  0
    6.9343   52.7387  127.6335 H   0  0  0  0  0  0  0  0  0  0  0  0
   10.8338   41.3905  131.1631 O   0  0  0  0  0  0  0  0  0  0  0  0
   10.2809   42.6411  130.9266 C   0  0  0  0  0  0  0  0  0  0  0  0
    8.9942   42.9847  131.3106 C   0  0  0  0  0  0  0  0  0  0  0  0
    8.4829   44.2458  131.0564 C   0  0  0  0  0  0  0  0  0  0  0  0
    9.2584   45.2205  130.4050 C   0  0  0  0  0  0  0  0  0  0  0  0
   10.5182   44.8371  130.0510 C   0  0  0  0  0  0  0  0  0  0  0  0
   11.0374   43.5928  130.2914 C   0  0  0  0  0  0  0  0  0  0  0  0
   11.7656   41.1679  130.8884 H   0  0  0  0  0  0  0  0  0  0  0  0
    9.7505   47.7621  132.0693 C   0  0  0  0  0  0  0  0  0  0  0  0
   10.6054   48.7759  132.0840 O   0  0  0  0  0  0  0  0  0  0  0  0
    9.8626   46.9347  133.2135 C   0  0  0  0  0  0  0  0  0  0  0  0
    9.0303   47.2369  134.3075 C   0  0  0  0  0  0  0  0  0  0  0  0
    9.0104   46.4901  135.4315 C   0  0  0  0  0  0  0  0  0  0  0  0
    9.8125   45.3697  135.5817 C   0  0  0  0  0  0  0  0  0  0  0  0
   10.6356   45.0419  134.5331 C   0  0  0  0  0  0  0  0  0  0  0  0
   10.6440   45.8240  133.3891 C   0  0  0  0  0  0  0  0  0  0  0  0
   11.4860   43.7942  134.6245 C   0  0  0  0  0  0  0  0  0  0  0  0
   12.6930   44.0123  133.9947 F   0  0  0  0  0  0  0  0  0  0  0  0
   11.7292   43.4593  135.9264 F   0  0  0  0  0  0  0  0  0  0  0  0
   10.7779   42.7699  133.9480 F   0  0  0  0  0  0  0  0  0  0  0  0
 12 13  1  0  0  0
 13 14  2  0  0  0
 14 15  1  0  0  0
 15 16  2  0  0  0
 16 17  1  0  0  0
 17 18  2  0  0  0
 16  1  1  0  0  0
  1  2  1  0  0  0
  2  3  1  0  0  0
  3  4  2  0  0  0
  4  5  1  0  0  0
  5  6  1  0  0  0
  5  7  2  0  0  0
  7  8  1  0  0  0
  8  9  2  0  0  0
  9 10  1  0  0  0
 10 20  1  0  0  0
 20 21  2  0  0  0
 20 22  1  0  0  0
 22 23  2  0  0  0
 23 24  1  0  0  0
 24 25  2  0  0  0
 25 26  1  0  0  0
 26 27  2  0  0  0
 26 28  1  0  0  0
 28 29  1  0  0  0
 28 30  1  0  0  0
 28 31  1  0  0  0
 18 13  1  0  0  0
 10  1  2  0  0  0
 27 22  1  0  0  0
  9  3  1  0  0  0
 12 19  1  0  0  0
  6 11  1  0  0  0
M  END
> <minimizedAffinity>
-6.98095

> <CNNscore>
0.5419328809

> <CNNaffinity>
7.7623682022

> <CNN_VS>
4.2066826820

> <CNNaffinity_variance>
0.5313333273

$$$$
[H]Oc1c([H])c([H])c(-c2sc3c([H])c(O[H])c([H])c([H])c3c2C(=O)c2c([H])c([H])c([H])c(C(F)(F)F)c2[H])c([H])c1[H]


 31 34  0  0  0  0  0  0  0  0999 V2000
    8.8119   47.0464  132.2394 C   0  0  0  0  0  0  0  0  0  0  0  0
    9.1557   47.3303  133.9124 S   0  0  0  0  0  0  0  0  0  0  0  0
    9.8357   45.8325  134.2932 C   0  0  0  0  0  0  0  0  0  0  0  0
   10.3644   45.3024  135.4798 C   0  0  0  0  0  0  0  0  0  0  0  0
   10.8754   44.0309  135.5331 C   0  0  0  0  0  0  0  0  0  0  0  0
   11.4153   43.4331  136.6674 O   0  0  0  0  0  0  0  0  0  0  0  0
   10.8246   43.3434  134.3503 C   0  0  0  0  0  0  0  0  0  0  0  0
   10.3175   43.8494  133.2140 C   0  0  0  0  0  0  0  0  0  0  0  0
    9.7863   45.1408  133.1252 C   0  0  0  0  0  0  0  0  0  0  0  0
    9.2530   45.7601  132.0404 C   0  0  0  0  0  0  0  0  0  0  0  0
   12.3664   43.4288  136.9520 H   0  0  0  0  0  0  0  0  0  0  0  0
    6.9591   51.0545  128.6876 O   0  0  0  0  0  0  0  0  0  0  0  0
    7.3722   50.0497  129.5508 C   0  0  0  0  0  0  0  0  0  0  0  0
    6.9507   48.7342  129.4379 C   0  0  0  0  0  0  0  0  0  0  0  0
    7.3901   47.7623  130.3204 C   0  0  0  0  0  0  0  0  0  0  0  0
    8.2849   48.0807  131.3566 C   0  0  0  0  0  0  0  0  0  0  0  0
    8.6742   49.3858  131.4242 C   0  0  0  0  0  0  0  0  0  0  0  0
    8.2457   50.3598  130.5620 C   0  0  0  0  0  0  0  0  0  0  0  0
    7.2835   51.9924  128.7800 H   0  0  0  0  0  0  0  0  0  0  0  0
    9.2000   45.2177  130.6952 C   0  0  0  0  0  0  0  0  0  0  0  0
    7.9579   45.1327  130.2385 O   0  0  0  0  0  0  0  0  0  0  0  0
   10.1595   44.7548  129.7616 C   0  0  0  0  0  0  0  0  0  0  0  0
    9.6755   44.2634  128.5348 C   0  0  0  0  0  0  0  0  0  0  0  0
   10.4947   43.8435  127.5479 C   0  0  0  0  0  0  0  0  0  0  0  0
   11.8744   43.8701  127.6792 C   0  0  0  0  0  0  0  0  0  0  0  0
   12.3833   44.3466  128.8618 C   0  0  0  0  0  0  0  0  0  0  0  0
   11.5249   44.7695  129.8642 C   0  0  0  0  0  0  0  0  0  0  0  0
   13.8828   44.4519  129.0308 C   0  0  0  0  0  0  0  0  0  0  0  0
   14.4928   43.3848  128.4060 F   0  0  0  0  0  0  0  0  0  0  0  0
   14.3595   45.6081  128.4809 F   0  0  0  0  0  0  0  0  0  0  0  0
   14.1393   44.3944  130.4233 F   0  0  0  0  0  0  0  0  0  0  0  0
 12 13  1  0  0  0
 13 14  2  0  0  0
 14 15  1  0  0  0
 15 16  2  0  0  0
 16 17  1  0  0  0
 17 18  2  0  0  0
 16  1  1  0  0  0
  1  2  1  0  0  0
  2  3  1  0  0  0
  3  4  2  0  0  0
  4  5  1  0  0  0
  5  6  1  0  0  0
  5  7  2  0  0  0
  7  8  1  0  0  0
  8  9  2  0  0  0
  9 10  1  0  0  0
 10 20  1  0  0  0
 20 21  2  0  0  0
 20 22  1  0  0  0
 22 23  2  0  0  0
 23 24  1  0  0  0
 24 25  2  0  0  0
 25 26  1  0  0  0
 26 27  2  0  0  0
 26 28  1  0  0  0
 28 29  1  0  0  0
 28 30  1  0  0  0
 28 31  1  0  0  0
 18 13  1  0  0  0
 10  1  2  0  0  0
 27 22  1  0  0  0
  9  3  1  0  0  0
 12 19  1  0  0  0
  6 11  1  0  0  0
M  END
> <minimizedAffinity>
-1.82660

> <CNNscore>
0.5318654180

> <CNNaffinity>
7.7823066711

> <CNN_VS>
4.1391396523

> <CNNaffinity_variance>
1.1217882633

$$$$
[H]Oc1c([H])c([H])c(-c2sc3c([H])c(O[H])c([H])c([H])c3c2C(=O)c2c([H])c([H])c([H])c(C(F)(F)F)c2[H])c([H])c1[H]


 31 34  0  0  0  0  0  0  0  0999 V2000
    8.7293   46.6551  130.2092 C   0  0  0  0  0  0  0  0  0  0  0  0
    7.8168   47.1135  128.8109 S   0  0  0  0  0  0  0  0  0  0  0  0
    7.6734   48.7657  129.1273 C   0  0  0  0  0  0  0  0  0  0  0  0
    7.0584   49.8173  128.4313 C   0  0  0  0  0  0  0  0  0  0  0  0
    7.0866   51.1046  128.9035 C   0  0  0  0  0  0  0  0  0  0  0  0
    6.5021   52.1996  128.2754 O   0  0  0  0  0  0  0  0  0  0  0  0
    7.7549   51.2654  130.0874 C   0  0  0  0  0  0  0  0  0  0  0  0
    8.3429   50.2593  130.7555 C   0  0  0  0  0  0  0  0  0  0  0  0
    8.3311   48.9350  130.3038 C   0  0  0  0  0  0  0  0  0  0  0  0
    8.8890   47.8414  130.8845 C   0  0  0  0  0  0  0  0  0  0  0  0
    6.9269   52.8213  127.6283 H   0  0  0  0  0  0  0  0  0  0  0  0
   10.5712   41.3301  130.8133 O   0  0  0  0  0  0  0  0  0  0  0  0
   10.1650   42.6489  130.6671 C   0  0  0  0  0  0  0  0  0  0  0  0
   10.9494   43.6202  130.0651 C   0  0  0  0  0  0  0  0  0  0  0  0
   10.5035   44.9246  129.9380 C   0  0  0  0  0  0  0  0  0  0  0  0
    9.2351   45.3024  130.4114 C   0  0  0  0  0  0  0  0  0  0  0  0
    8.4991   44.3118  130.9913 C   0  0  0  0  0  0  0  0  0  0  0  0
    8.9271   43.0181  131.1285 C   0  0  0  0  0  0  0  0  0  0  0  0
    9.9864   40.6448  131.2396 H   0  0  0  0  0  0  0  0  0  0  0  0
    9.7035   47.8418  132.0859 C   0  0  0  0  0  0  0  0  0  0  0  0
   10.4807   48.9136  132.1631 O   0  0  0  0  0  0  0  0  0  0  0  0
    9.8662   46.9668  133.1879 C   0  0  0  0  0  0  0  0  0  0  0  0
    9.0271   47.1722  134.2990 C   0  0  0  0  0  0  0  0  0  0  0  0
    9.0536   46.3719  135.3854 C   0  0  0  0  0  0  0  0  0  0  0  0
    9.9135   45.2886  135.4772 C   0  0  0  0  0  0  0  0  0  0  0  0
   10.7450   45.0550  134.4102 C   0  0  0  0  0  0  0  0  0  0  0  0
   10.7050   45.8909  133.3056 C   0  0  0  0  0  0  0  0  0  0  0  0
   11.6592   43.8501  134.4368 C   0  0  0  0  0  0  0  0  0  0  0  0
   11.2136   42.9137  133.5281 F   0  0  0  0  0  0  0  0  0  0  0  0
   12.9397   44.1973  134.1109 F   0  0  0  0  0  0  0  0  0  0  0  0
   11.5837   43.3122  135.7457 F   0  0  0  0  0  0  0  0  0  0  0  0
 12 13  1  0  0  0
 13 14  2  0  0  0
 14 15  1  0  0  0
 15 16  2  0  0  0
 16 17  1  0  0  0
 17 18  2  0  0  0
 16  1  1  0  0  0
  1  2  1  0  0  0
  2  3  1  0  0  0
  3  4  2  0  0  0
  4  5  1  0  0  0
  5  6  1  0  0  0
  5  7  2  0  0  0
  7  8  1  0  0  0
  8  9  2  0  0  0
  9 10  1  0  0  0
 10 20  1  0  0  0
 20 21  2  0  0  0
 20 22  1  0  0  0
 22 23  2  0  0  0
 23 24  1  0  0  0
 24 25  2  0  0  0
 25 26  1  0  0  0
 26 27  2  0  0  0
 26 28  1  0  0  0
 28 29  1  0  0  0
 28 30  1  0  0  0
 28 31  1  0  0  0
 18 13  1  0  0  0
 10  1  2  0  0  0
 27 22  1  0  0  0
  9  3  1  0  0  0
 12 19  1  0  0  0
  6 11  1  0  0  0
M  END
> <minimizedAffinity>
-6.77133

> <CNNscore>
0.5179368258

> <CNNaffinity>
7.7585434914

> <CNN_VS>
4.0184354782

> <CNNaffinity_variance>
0.5328266025

$$$$
[H]Oc1c([H])c([H])c(-c2sc3c([H])c(O[H])c([H])c([H])c3c2C(=O)c2c([H])c([H])c([H])c(C(F)(F)F)c2[H])c([H])c1[H]


 31 34  0  0  0  0  0  0  0  0999 V2000
    8.9870   47.9437  132.0505 C   0  0  0  0  0  0  0  0  0  0  0  0
   10.2486   48.9640  132.6548 S   0  0  0  0  0  0  0  0  0  0  0  0
   11.1931   47.7856  133.4097 C   0  0  0  0  0  0  0  0  0  0  0  0
   12.3982   47.8478  134.1257 C   0  0  0  0  0  0  0  0  0  0  0  0
   12.9825   46.7221  134.6472 C   0  0  0  0  0  0  0  0  0  0  0  0
   14.1723   46.6996  135.3679 O   0  0  0  0  0  0  0  0  0  0  0  0
   12.2991   45.5599  134.4097 C   0  0  0  0  0  0  0  0  0  0  0  0
   11.1447   45.4992  133.7256 C   0  0  0  0  0  0  0  0  0  0  0  0
   10.5204   46.6276  133.1826 C   0  0  0  0  0  0  0  0  0  0  0  0
    9.3636   46.6917  132.4738 C   0  0  0  0  0  0  0  0  0  0  0  0
   15.0894   46.5614  135.0136 H   0  0  0  0  0  0  0  0  0  0  0  0
    4.9573   49.9683  128.6188 O   0  0  0  0  0  0  0  0  0  0  0  0
    5.9234   49.4301  129.4570 C   0  0  0  0  0  0  0  0  0  0  0  0
    6.3118   48.1004  129.4085 C   0  0  0  0  0  0  0  0  0  0  0  0
    7.2823   47.6054  130.2628 C   0  0  0  0  0  0  0  0  0  0  0  0
    7.9092   48.4411  131.2032 C   0  0  0  0  0  0  0  0  0  0  0  0
    7.4971   49.7409  131.2098 C   0  0  0  0  0  0  0  0  0  0  0  0
    6.5359   50.2451  130.3746 C   0  0  0  0  0  0  0  0  0  0  0  0
    4.7009   50.9304  128.6629 H   0  0  0  0  0  0  0  0  0  0  0  0
    8.5612   45.5567  132.0559 C   0  0  0  0  0  0  0  0  0  0  0  0
    7.3639   45.5533  132.6262 O   0  0  0  0  0  0  0  0  0  0  0  0
    8.7582   44.4536  131.1895 C   0  0  0  0  0  0  0  0  0  0  0  0
    8.3379   43.1923  131.6515 C   0  0  0  0  0  0  0  0  0  0  0  0
    8.4261   42.0772  130.8963 C   0  0  0  0  0  0  0  0  0  0  0  0
    8.9387   42.1023  129.6087 C   0  0  0  0  0  0  0  0  0  0  0  0
    9.3559   43.3165  129.1227 C   0  0  0  0  0  0  0  0  0  0  0  0
    9.2603   44.4491  129.9156 C   0  0  0  0  0  0  0  0  0  0  0  0
    9.8670   43.4067  127.7019 C   0  0  0  0  0  0  0  0  0  0  0  0
   10.6537   42.3088  127.4249 F   0  0  0  0  0  0  0  0  0  0  0  0
    8.8336   43.4375  126.8088 F   0  0  0  0  0  0  0  0  0  0  0  0
   10.6535   44.5831  127.6273 F   0  0  0  0  0  0  0  0  0  0  0  0
 12 13  1  0  0  0
 13 14  2  0  0  0
 14 15  1  0  0  0
 15 16  2  0  0  0
 16 17  1  0  0  0
 17 18  2  0  0  0
 16  1  1  0  0  0
  1  2  1  0  0  0
  2  3  1  0  0  0
  3  4  2  0  0  0
  4  5  1  0  0  0
  5  6  1  0  0  0
  5  7  2  0  0  0
  7  8  1  0  0  0
  8  9  2  0  0  0
  9 10  1  0  0  0
 10 20  1  0  0  0
 20 21  2  0  0  0
 20 22  1  0  0  0
 22 23  2  0  0  0
 23 24  1  0  0  0
 24 25  2  0  0  0
 25 26  1  0  0  0
 26 27  2  0  0  0
 26 28  1  0  0  0
 28 29  1  0  0  0
 28 30  1  0  0  0
 28 31  1  0  0  0
 18 13  1  0  0  0
 10  1  2  0  0  0
 27 22  1  0  0  0
  9  3  1  0  0  0
 12 19  1  0  0  0
  6 11  1  0  0  0
M  END
> <minimizedAffinity>
1.93766

> <CNNscore>
0.4777450562

> <CNNaffinity>
7.7080979347

> <CNN_VS>
3.6825056076

> <CNNaffinity_variance>
2.0290369987

$$$$
[H]Oc1c([H])c([H])c(-c2sc3c([H])c(O[H])c([H])c([H])c3c2C(=O)c2c([H])c([H])c([H])c(C(F)(F)F)c2[H])c([H])c1[H]


 31 34  0  0  0  0  0  0  0  0999 V2000
    8.8229   48.1047  131.3985 C   0  0  0  0  0  0  0  0  0  0  0  0
    9.0959   49.3904  132.5255 S   0  0  0  0  0  0  0  0  0  0  0  0
   10.3718   48.7053  133.3934 C   0  0  0  0  0  0  0  0  0  0  0  0
   11.1366   49.1604  134.4781 C   0  0  0  0  0  0  0  0  0  0  0  0
   12.1463   48.4022  135.0133 C   0  0  0  0  0  0  0  0  0  0  0  0
   12.9475   48.7802  136.0860 O   0  0  0  0  0  0  0  0  0  0  0  0
   12.3357   47.1901  134.4057 C   0  0  0  0  0  0  0  0  0  0  0  0
   11.6033   46.7527  133.3681 C   0  0  0  0  0  0  0  0  0  0  0  0
   10.5650   47.4989  132.7997 C   0  0  0  0  0  0  0  0  0  0  0  0
    9.7631   47.1677  131.7548 C   0  0  0  0  0  0  0  0  0  0  0  0
   13.8213   49.2501  136.0498 H   0  0  0  0  0  0  0  0  0  0  0  0
    5.2224   48.3721  127.0306 O   0  0  0  0  0  0  0  0  0  0  0  0
    6.0689   48.2901  128.1271 C   0  0  0  0  0  0  0  0  0  0  0  0
    5.9019   47.3639  129.1447 C   0  0  0  0  0  0  0  0  0  0  0  0
    6.7722   47.3156  130.2201 C   0  0  0  0  0  0  0  0  0  0  0  0
    7.8585   48.2033  130.3090 C   0  0  0  0  0  0  0  0  0  0  0  0
    7.9837   49.0923  129.2827 C   0  0  0  0  0  0  0  0  0  0  0  0
    7.1294   49.1557  128.2142 C   0  0  0  0  0  0  0  0  0  0  0  0
    5.3673   49.0389  126.3041 H   0  0  0  0  0  0  0  0  0  0  0  0
    9.8799   45.9706  130.9424 C   0  0  0  0  0  0  0  0  0  0  0  0
   10.6939   46.1441  129.9099 O   0  0  0  0  0  0  0  0  0  0  0  0
    9.3265   44.6676  130.9906 C   0  0  0  0  0  0  0  0  0  0  0  0
    9.3857   43.9018  129.8112 C   0  0  0  0  0  0  0  0  0  0  0  0
    8.9385   42.6299  129.7494 C   0  0  0  0  0  0  0  0  0  0  0  0
    8.3894   41.9914  130.8503 C   0  0  0  0  0  0  0  0  0  0  0  0
    8.3183   42.7066  132.0200 C   0  0  0  0  0  0  0  0  0  0  0  0
    8.7795   44.0128  132.0616 C   0  0  0  0  0  0  0  0  0  0  0  0
    7.7826   42.0344  133.2647 C   0  0  0  0  0  0  0  0  0  0  0  0
    6.7188   41.2242  132.9290 F   0  0  0  0  0  0  0  0  0  0  0  0
    8.7428   41.2667  133.8606 F   0  0  0  0  0  0  0  0  0  0  0  0
    7.3366   43.0687  134.1246 F   0  0  0  0  0  0  0  0  0  0  0  0
 12 13  1  0  0  0
 13 14  2  0  0  0
 14 15  1  0  0  0
 15 16  2  0  0  0
 16 17  1  0  0  0
 17 18  2  0  0  0
 16  1  1  0  0  0
  1  2  1  0  0  0
  2  3  1  0  0  0
  3  4  2  0  0  0
  4  5  1  0  0  0
  5  6  1  0  0  0
  5  7  2  0  0  0
  7  8  1  0  0  0
  8  9  2  0  0  0
  9 10  1  0  0  0
 10 20  1  0  0  0
 20 21  2  0  0  0
 20 22  1  0  0  0
 22 23  2  0  0  0
 23 24  1  0  0  0
 24 25  2  0  0  0
 25 26  1  0  0  0
 26 27  2  0  0  0
 26 28  1  0  0  0
 28 29  1  0  0  0
 28 30  1  0  0  0
 28 31  1  0  0  0
 18 13  1  0  0  0
 10  1  2  0  0  0
 27 22  1  0  0  0
  9  3  1  0  0  0
 12 19  1  0  0  0
  6 11  1  0  0  0
M  END
> <minimizedAffinity>
8.48118

> <CNNscore>
0.4755570590

> <CNNaffinity>
7.4626359940

> <CNN_VS>
3.5489091873

> <CNNaffinity_variance>
2.1758964062

$$$$
[H]Oc1c([H])c([H])c(-c2sc3c([H])c(O[H])c([H])c([H])c3c2C(=O)c2c([H])c([H])c([H])c(C(F)(F)F)c2[H])c([H])c1[H]


 31 34  0  0  0  0  0  0  0  0999 V2000
    8.8794   47.6594  132.6570 C   0  0  0  0  0  0  0  0  0  0  0  0
    8.6361   48.0406  134.3283 S   0  0  0  0  0  0  0  0  0  0  0  0
    9.4249   46.7137  135.0123 C   0  0  0  0  0  0  0  0  0  0  0  0
    9.6506   46.3228  136.3408 C   0  0  0  0  0  0  0  0  0  0  0  0
   10.3411   45.1777  136.6450 C   0  0  0  0  0  0  0  0  0  0  0  0
   10.6054   44.7216  137.9324 O   0  0  0  0  0  0  0  0  0  0  0  0
   10.7806   44.4688  135.5594 C   0  0  0  0  0  0  0  0  0  0  0  0
   10.5640   44.8412  134.2871 C   0  0  0  0  0  0  0  0  0  0  0  0
    9.8619   46.0012  133.9416 C   0  0  0  0  0  0  0  0  0  0  0  0
    9.5847   46.4807  132.7015 C   0  0  0  0  0  0  0  0  0  0  0  0
   11.4077   44.9100  138.4861 H   0  0  0  0  0  0  0  0  0  0  0  0
    7.0888   51.1493  128.5670 O   0  0  0  0  0  0  0  0  0  0  0  0
    7.5663   50.3211  129.5728 C   0  0  0  0  0  0  0  0  0  0  0  0
    8.3982   50.7659  130.5883 C   0  0  0  0  0  0  0  0  0  0  0  0
    8.8497   49.9050  131.5740 C   0  0  0  0  0  0  0  0  0  0  0  0
    8.4712   48.5513  131.5778 C   0  0  0  0  0  0  0  0  0  0  0  0
    7.6489   48.1624  130.5619 C   0  0  0  0  0  0  0  0  0  0  0  0
    7.1969   49.0001  129.5773 C   0  0  0  0  0  0  0  0  0  0  0  0
    6.4822   50.8112  127.8522 H   0  0  0  0  0  0  0  0  0  0  0  0
   10.0457   45.9101  131.4491 C   0  0  0  0  0  0  0  0  0  0  0  0
   10.9578   46.6705  130.8585 O   0  0  0  0  0  0  0  0  0  0  0  0
    9.7473   44.7391  130.7102 C   0  0  0  0  0  0  0  0  0  0  0  0
    8.9715   43.7559  131.3523 C   0  0  0  0  0  0  0  0  0  0  0  0
    8.5804   42.6222  130.7333 C   0  0  0  0  0  0  0  0  0  0  0  0
    8.9188   42.3516  129.4167 C   0  0  0  0  0  0  0  0  0  0  0  0
    9.6726   43.2900  128.7567 C   0  0  0  0  0  0  0  0  0  0  0  0
   10.0672   44.4459  129.4115 C   0  0  0  0  0  0  0  0  0  0  0  0
   10.0169   43.0689  127.3004 C   0  0  0  0  0  0  0  0  0  0  0  0
    8.8801   43.2062  126.5324 F   0  0  0  0  0  0  0  0  0  0  0  0
   10.9438   43.9762  126.8712 F   0  0  0  0  0  0  0  0  0  0  0  0
   10.5015   41.7414  127.1949 F   0  0  0  0  0  0  0  0  0  0  0  0
 12 13  1  0  0  0
 13 14  2  0  0  0
 14 15  1  0  0  0
 15 16  2  0  0  0
 16 17  1  0  0  0
 17 18  2  0  0  0
 16  1  1  0  0  0
  1  2  1  0  0  0
  2  3  1  0  0  0
  3  4  2  0  0  0
  4  5  1  0  0  0
  5  6  1  0  0  0
  5  7  2  0  0  0
  7  8  1  0  0  0
  8  9  2  0  0  0
  9 10  1  0  0  0
 10 20  1  0  0  0
 20 21  2  0  0  0
 20 22  1  0  0  0
 22 23  2  0  0  0
 23 24  1  0  0  0
 24 25  2  0  0  0
 25 26  1  0  0  0
 26 27  2  0  0  0
 26 28  1  0  0  0
 28 29  1  0  0  0
 28 30  1  0  0  0
 28 31  1  0  0  0
 18 13  1  0  0  0
 10  1  2  0  0  0
 27 22  1  0  0  0
  9  3  1  0  0  0
 12 19  1  0  0  0
  6 11  1  0  0  0
M  END
> <minimizedAffinity>
1.66041

> <CNNscore>
0.4712815285

> <CNNaffinity>
7.6504034996

> <CNN_VS>
3.6054937840

> <CNNaffinity_variance>
1.7519690990

$$$$
[H]Oc1c([H])c([H])c(-c2sc3c([H])c(O[H])c([H])c([H])c3c2C(=O)c2c([H])c([H])c([H])c(C(F)(F)F)c2[H])c([H])c1[H]


 31 34  0  0  0  0  0  0  0  0999 V2000
    8.1882   46.6336  129.9250 C   0  0  0  0  0  0  0  0  0  0  0  0
    7.2206   47.3779  128.6972 S   0  0  0  0  0  0  0  0  0  0  0  0
    7.3637   48.9847  129.1955 C   0  0  0  0  0  0  0  0  0  0  0  0
    6.8497   50.1872  128.6873 C   0  0  0  0  0  0  0  0  0  0  0  0
    7.1213   51.3926  129.2822 C   0  0  0  0  0  0  0  0  0  0  0  0
    6.6507   52.6255  128.8420 O   0  0  0  0  0  0  0  0  0  0  0  0
    7.9219   51.3167  130.3901 C   0  0  0  0  0  0  0  0  0  0  0  0
    8.4134   50.1659  130.8784 C   0  0  0  0  0  0  0  0  0  0  0  0
    8.1543   48.9194  130.2982 C   0  0  0  0  0  0  0  0  0  0  0  0
    8.5943   47.6972  130.6948 C   0  0  0  0  0  0  0  0  0  0  0  0
    7.0983   53.2535  128.2167 H   0  0  0  0  0  0  0  0  0  0  0  0
    9.6002   41.1465  130.0307 O   0  0  0  0  0  0  0  0  0  0  0  0
    9.2134   42.4791  130.0255 C   0  0  0  0  0  0  0  0  0  0  0  0
    8.3630   43.0241  130.9746 C   0  0  0  0  0  0  0  0  0  0  0  0
    8.0045   44.3606  130.9330 C   0  0  0  0  0  0  0  0  0  0  0  0
    8.4994   45.2088  129.9273 C   0  0  0  0  0  0  0  0  0  0  0  0
    9.3353   44.6283  129.0198 C   0  0  0  0  0  0  0  0  0  0  0  0
    9.6963   43.3074  129.0446 C   0  0  0  0  0  0  0  0  0  0  0  0
   10.2220   40.7775  129.3446 H   0  0  0  0  0  0  0  0  0  0  0  0
    9.5158   47.4409  131.7865 C   0  0  0  0  0  0  0  0  0  0  0  0
    9.5204   48.4224  132.6783 O   0  0  0  0  0  0  0  0  0  0  0  0
   10.4116   46.3951  132.1185 C   0  0  0  0  0  0  0  0  0  0  0  0
   11.5102   46.1955  131.2618 C   0  0  0  0  0  0  0  0  0  0  0  0
   12.4578   45.2651  131.5025 C   0  0  0  0  0  0  0  0  0  0  0  0
   12.4104   44.4414  132.6163 C   0  0  0  0  0  0  0  0  0  0  0  0
   11.3542   44.6097  133.4770 C   0  0  0  0  0  0  0  0  0  0  0  0
   10.3897   45.5682  133.2098 C   0  0  0  0  0  0  0  0  0  0  0  0
   11.2896   43.7764  134.7378 C   0  0  0  0  0  0  0  0  0  0  0  0
   12.5502   43.3123  135.0483 F   0  0  0  0  0  0  0  0  0  0  0  0
   10.8260   44.5132  135.7907 F   0  0  0  0  0  0  0  0  0  0  0  0
   10.4379   42.6794  134.4560 F   0  0  0  0  0  0  0  0  0  0  0  0
 12 13  1  0  0  0
 13 14  2  0  0  0
 14 15  1  0  0  0
 15 16  2  0  0  0
 16 17  1  0  0  0
 17 18  2  0  0  0
 16  1  1  0  0  0
  1  2  1  0  0  0
  2  3  1  0  0  0
  3  4  2  0  0  0
  4  5  1  0  0  0
  5  6  1  0  0  0
  5  7  2  0  0  0
  7  8  1  0  0  0
  8  9  2  0  0  0
  9 10  1  0  0  0
 10 20  1  0  0  0
 20 21  2  0  0  0
 20 22  1  0  0  0
 22 23  2  0  0  0
 23 24  1  0  0  0
 24 25  2  0  0  0
 25 26  1  0  0  0
 26 27  2  0  0  0
 26 28  1  0  0  0
 28 29  1  0  0  0
 28 30  1  0  0  0
 28 31  1  0  0  0
 18 13  1  0  0  0
 10  1  2  0  0  0
 27 22  1  0  0  0
  9  3  1  0  0  0
 12 19  1  0  0  0
  6 11  1  0  0  0
M  END
> <minimizedAffinity>
-5.31159

> <CNNscore>
0.4634091556

> <CNNaffinity>
7.6715912819

> <CNN_VS>
3.5550856590

> <CNNaffinity_variance>
0.6367272139

$$$$
[H]Oc1c([H])c([H])c(-c2sc3c([H])c(O[H])c([H])c([H])c3c2C(=O)c2c([H])c([H])c([H])c(C(F)(F)F)c2[H])c([H])c1[H]


 31 34  0  0  0  0  0  0  0  0999 V2000
    8.4882   45.7283  133.1505 C   0  0  0  0  0  0  0  0  0  0  0  0
    7.1624   45.3415  134.1948 S   0  0  0  0  0  0  0  0  0  0  0  0
    7.2320   43.6581  134.0863 C   0  0  0  0  0  0  0  0  0  0  0  0
    6.4671   42.6354  134.6673 C   0  0  0  0  0  0  0  0  0  0  0  0
    6.7324   41.3124  134.4222 C   0  0  0  0  0  0  0  0  0  0  0  0
    6.0225   40.2422  134.9570 O   0  0  0  0  0  0  0  0  0  0  0  0
    7.7876   41.0868  133.5797 C   0  0  0  0  0  0  0  0  0  0  0  0
    8.5198   42.0650  133.0218 C   0  0  0  0  0  0  0  0  0  0  0  0
    8.2751   43.4239  133.2483 C   0  0  0  0  0  0  0  0  0  0  0  0
    8.9434   44.4955  132.7485 C   0  0  0  0  0  0  0  0  0  0  0  0
    6.2210   39.7442  135.7926 H   0  0  0  0  0  0  0  0  0  0  0  0
   10.1172   51.1102  132.4473 O   0  0  0  0  0  0  0  0  0  0  0  0
    9.7594   49.7836  132.6411 C   0  0  0  0  0  0  0  0  0  0  0  0
   10.2180   49.0238  133.7058 C   0  0  0  0  0  0  0  0  0  0  0  0
    9.8334   47.7032  133.8623 C   0  0  0  0  0  0  0  0  0  0  0  0
    8.9584   47.0936  132.9466 C   0  0  0  0  0  0  0  0  0  0  0  0
    8.5311   47.8821  131.9194 C   0  0  0  0  0  0  0  0  0  0  0  0
    8.9052   49.1884  131.7481 C   0  0  0  0  0  0  0  0  0  0  0  0
    9.7668   51.6419  131.6805 H   0  0  0  0  0  0  0  0  0  0  0  0
   10.1324   44.4412  131.9178 C   0  0  0  0  0  0  0  0  0  0  0  0
   11.2394   44.3123  132.6366 O   0  0  0  0  0  0  0  0  0  0  0  0
   10.3870   44.4989  130.5256 C   0  0  0  0  0  0  0  0  0  0  0  0
   10.5876   43.2755  129.8593 C   0  0  0  0  0  0  0  0  0  0  0  0
   10.7868   43.1999  128.5266 C   0  0  0  0  0  0  0  0  0  0  0  0
   10.8060   44.3291  127.7229 C   0  0  0  0  0  0  0  0  0  0  0  0
   10.6103   45.5407  128.3379 C   0  0  0  0  0  0  0  0  0  0  0  0
   10.4112   45.5971  129.7082 C   0  0  0  0  0  0  0  0  0  0  0  0
   10.5625   46.7966  127.4960 C   0  0  0  0  0  0  0  0  0  0  0  0
    9.5015   47.5801  127.8975 F   0  0  0  0  0  0  0  0  0  0  0  0
   11.7129   47.5214  127.6288 F   0  0  0  0  0  0  0  0  0  0  0  0
   10.3626   46.3798  126.1564 F   0  0  0  0  0  0  0  0  0  0  0  0
 12 13  1  0  0  0
 13 14  2  0  0  0
 14 15  1  0  0  0
 15 16  2  0  0  0
 16 17  1  0  0  0
 17 18  2  0  0  0
 16  1  1  0  0  0
  1  2  1  0  0  0
  2  3  1  0  0  0
  3  4  2  0  0  0
  4  5  1  0  0  0
  5  6  1  0  0  0
  5  7  2  0  0  0
  7  8  1  0  0  0
  8  9  2  0  0  0
  9 10  1  0  0  0
 10 20  1  0  0  0
 20 21  2  0  0  0
 20 22  1  0  0  0
 22 23  2  0  0  0
 23 24  1  0  0  0
 24 25  2  0  0  0
 25 26  1  0  0  0
 26 27  2  0  0  0
 26 28  1  0  0  0
 28 29  1  0  0  0
 28 30  1  0  0  0
 28 31  1  0  0  0
 18 13  1  0  0  0
 10  1  2  0  0  0
 27 22  1  0  0  0
  9  3  1  0  0  0
 12 19  1  0  0  0
  6 11  1  0  0  0
M  END
> <minimizedAffinity>
16.77049

> <CNNscore>
0.4627920389

> <CNNaffinity>
7.1284561157

> <CNN_VS>
3.2989926338

> <CNNaffinity_variance>
2.2544069290

$$$$
[H]Oc1c([H])c([H])c(-c2sc3c([H])c(O[H])c([H])c([H])c3c2C(=O)c2c([H])c([H])c([H])c(C(F)(F)F)c2[H])c([H])c1[H]


 31 34  0  0  0  0  0  0  0  0999 V2000
    8.8452   47.5740  131.7740 C   0  0  0  0  0  0  0  0  0  0  0  0
    9.2524   48.8899  132.8229 S   0  0  0  0  0  0  0  0  0  0  0  0
   10.5280   48.1668  133.6599 C   0  0  0  0  0  0  0  0  0  0  0  0
   11.3736   48.6221  134.6827 C   0  0  0  0  0  0  0  0  0  0  0  0
   12.3623   47.8276  135.2042 C   0  0  0  0  0  0  0  0  0  0  0  0
   13.2389   48.2032  136.2170 O   0  0  0  0  0  0  0  0  0  0  0  0
   12.4472   46.5798  134.6473 C   0  0  0  0  0  0  0  0  0  0  0  0
   11.6375   46.1423  133.6690 C   0  0  0  0  0  0  0  0  0  0  0  0
   10.6179   46.9251  133.1164 C   0  0  0  0  0  0  0  0  0  0  0  0
    9.7447   46.5975  132.1290 C   0  0  0  0  0  0  0  0  0  0  0  0
   14.1362   48.6157  136.1157 H   0  0  0  0  0  0  0  0  0  0  0  0
    5.0698   47.9220  127.5623 O   0  0  0  0  0  0  0  0  0  0  0  0
    5.9627   47.8121  128.6188 C   0  0  0  0  0  0  0  0  0  0  0  0
    5.9617   46.7446  129.5028 C   0  0  0  0  0  0  0  0  0  0  0  0
    6.8729   46.6739  130.5426 C   0  0  0  0  0  0  0  0  0  0  0  0
    7.8336   47.6829  130.7293 C   0  0  0  0  0  0  0  0  0  0  0  0
    7.7978   48.7094  129.8324 C   0  0  0  0  0  0  0  0  0  0  0  0
    6.9007   48.7962  128.8013 C   0  0  0  0  0  0  0  0  0  0  0  0
    5.0952   48.6931  126.9314 H   0  0  0  0  0  0  0  0  0  0  0  0
    9.7477   45.3599  131.3707 C   0  0  0  0  0  0  0  0  0  0  0  0
    8.8152   44.5146  131.7888 O   0  0  0  0  0  0  0  0  0  0  0  0
   10.5133   44.8432  130.2968 C   0  0  0  0  0  0  0  0  0  0  0  0
    9.8074   44.3796  129.1708 C   0  0  0  0  0  0  0  0  0  0  0  0
   10.4285   43.9138  128.0669 C   0  0  0  0  0  0  0  0  0  0  0  0
   11.8102   43.8624  127.9697 C   0  0  0  0  0  0  0  0  0  0  0  0
   12.5325   44.3097  129.0480 C   0  0  0  0  0  0  0  0  0  0  0  0
   11.8756   44.7806  130.1736 C   0  0  0  0  0  0  0  0  0  0  0  0
   14.0429   44.3300  128.9675 C   0  0  0  0  0  0  0  0  0  0  0  0
   14.4850   43.1950  128.3215 F   0  0  0  0  0  0  0  0  0  0  0  0
   14.4836   45.4231  128.2765 F   0  0  0  0  0  0  0  0  0  0  0  0
   14.5205   44.3314  130.3017 F   0  0  0  0  0  0  0  0  0  0  0  0
 12 13  1  0  0  0
 13 14  2  0  0  0
 14 15  1  0  0  0
 15 16  2  0  0  0
 16 17  1  0  0  0
 17 18  2  0  0  0
 16  1  1  0  0  0
  1  2  1  0  0  0
  2  3  1  0  0  0
  3  4  2  0  0  0
  4  5  1  0  0  0
  5  6  1  0  0  0
  5  7  2  0  0  0
  7  8  1  0  0  0
  8  9  2  0  0  0
  9 10  1  0  0  0
 10 20  1  0  0  0
 20 21  2  0  0  0
 20 22  1  0  0  0
 22 23  2  0  0  0
 23 24  1  0  0  0
 24 25  2  0  0  0
 25 26  1  0  0  0
 26 27  2  0  0  0
 26 28  1  0  0  0
 28 29  1  0  0  0
 28 30  1  0  0  0
 28 31  1  0  0  0
 18 13  1  0  0  0
 10  1  2  0  0  0
 27 22  1  0  0  0
  9  3  1  0  0  0
 12 19  1  0  0  0
  6 11  1  0  0  0
M  END
> <minimizedAffinity>
5.95816

> <CNNscore>
0.4499236941

> <CNNaffinity>
7.2014245987

> <CNN_VS>
3.2400915623

> <CNNaffinity_variance>
1.2993810177

$$$$
[H]Oc1c([H])c([H])c(/C(=N/OC([H])([H])c2c([H])c([H])c([H])c([H])c2[H])C([H])([H])[H])c(O[H])c1F


 22 23  0  0  0  0  0  0  0  0999 V2000
   10.1837   45.6033  129.0329 C   0  0  0  0  0  0  0  0  0  0  0  0
    8.8846   45.9385  129.6320 C   0  0  0  0  0  0  0  0  0  0  0  0
    8.1381   45.0049  130.1181 N   0  0  0  0  0  0  0  0  0  0  0  0
    8.4537   47.3427  129.6679 C   0  0  0  0  0  0  0  0  0  0  0  0
    7.4428   47.7705  128.7943 C   0  0  0  0  0  0  0  0  0  0  0  0
    6.9931   49.0694  128.7761 C   0  0  0  0  0  0  0  0  0  0  0  0
    7.5200   50.0211  129.6238 C   0  0  0  0  0  0  0  0  0  0  0  0
    7.0582   51.3366  129.5989 O   0  0  0  0  0  0  0  0  0  0  0  0
    8.5129   49.6137  130.4861 C   0  0  0  0  0  0  0  0  0  0  0  0
    9.0385   50.5376  131.3232 F   0  0  0  0  0  0  0  0  0  0  0  0
    8.9730   48.2902  130.5066 C   0  0  0  0  0  0  0  0  0  0  0  0
    9.9679   47.9429  131.3909 O   0  0  0  0  0  0  0  0  0  0  0  0
    7.4788   51.9959  130.2421 H   0  0  0  0  0  0  0  0  0  0  0  0
   10.3946   48.5790  132.0326 H   0  0  0  0  0  0  0  0  0  0  0  0
    8.5936   43.7134  130.0558 O   0  0  0  0  0  0  0  0  0  0  0  0
    8.6534   42.9597  131.2269 C   0  0  0  0  0  0  0  0  0  0  0  0
    9.8644   43.3257  132.0255 C   0  0  0  0  0  0  0  0  0  0  0  0
   11.1200   42.9664  131.5904 C   0  0  0  0  0  0  0  0  0  0  0  0
   12.2405   43.3009  132.3224 C   0  0  0  0  0  0  0  0  0  0  0  0
   12.1472   44.0074  133.5172 C   0  0  0  0  0  0  0  0  0  0  0  0
   10.8836   44.3536  133.9290 C   0  0  0  0  0  0  0  0  0  0  0  0
    9.7642   44.0194  133.1978 C   0  0  0  0  0  0  0  0  0  0  0  0
  1  2  1  0  0  0
  2  3  2  0  0  0
  3 15  1  0  0  0
 15 16  1  0  0  0
 16 17  1  0  0  0
 17 18  2  0  0  0
 18 19  1  0  0  0
 19 20  2  0  0  0
 20 21  1  0  0  0
 21 22  2  0  0  0
  2  4  1  0  0  0
  4  5  2  0  0  0
  5  6  1  0  0  0
  6  7  2  0  0  0
  7  8  1  0  0  0
  7  9  1  0  0  0
  9 10  1  0  0  0
  9 11  2  0  0  0
 11 12  1  0  0  0
 22 17  1  0  0  0
 11  4  1  0  0  0
  8 13  1  0  0  0
 12 14  1  0  0  0
M  END
> <minimizedAffinity>
-8.56626

> <CNNscore>
0.9200289249

> <CNNaffinity>
7.3500761986

> <CNN_VS>
6.7622828484

> <CNNaffinity_variance>
1.0480725765

$$$$
[H]Oc1c([H])c([H])c(/C(=N/OC([H])([H])c2c([H])c([H])c([H])c([H])c2[H])C([H])([H])[H])c(O[H])c1F


 22 23  0  0  0  0  0  0  0  0999 V2000
    8.2303   44.9453  130.2046 C   0  0  0  0  0  0  0  0  0  0  0  0
    9.0929   46.0413  129.7423 C   0  0  0  0  0  0  0  0  0  0  0  0
   10.2870   45.7895  129.3230 N   0  0  0  0  0  0  0  0  0  0  0  0
    8.5772   47.4169  129.7653 C   0  0  0  0  0  0  0  0  0  0  0  0
    7.5185   47.7647  128.9131 C   0  0  0  0  0  0  0  0  0  0  0  0
    6.9891   49.0330  128.8843 C   0  0  0  0  0  0  0  0  0  0  0  0
    7.4789   50.0317  129.6997 C   0  0  0  0  0  0  0  0  0  0  0  0
    6.9362   51.3157  129.6642 O   0  0  0  0  0  0  0  0  0  0  0  0
    8.5181   49.7028  130.5407 C   0  0  0  0  0  0  0  0  0  0  0  0
    9.0081   50.6735  131.3460 F   0  0  0  0  0  0  0  0  0  0  0  0
    9.0595   48.4107  130.5719 C   0  0  0  0  0  0  0  0  0  0  0  0
   10.0975   48.1424  131.4339 O   0  0  0  0  0  0  0  0  0  0  0  0
    7.3325   52.0119  130.2834 H   0  0  0  0  0  0  0  0  0  0  0  0
   10.5014   48.8159  132.0517 H   0  0  0  0  0  0  0  0  0  0  0  0
   10.7127   44.4864  129.3250 O   0  0  0  0  0  0  0  0  0  0  0  0
   11.9095   44.1664  129.9638 C   0  0  0  0  0  0  0  0  0  0  0  0
   11.7444   44.2274  131.4495 C   0  0  0  0  0  0  0  0  0  0  0  0
   10.9835   43.2859  132.1046 C   0  0  0  0  0  0  0  0  0  0  0  0
   10.8274   43.3368  133.4744 C   0  0  0  0  0  0  0  0  0  0  0  0
   11.4267   44.3315  134.2403 C   0  0  0  0  0  0  0  0  0  0  0  0
   12.1803   45.2584  133.5627 C   0  0  0  0  0  0  0  0  0  0  0  0
   12.3362   45.2075  132.1943 C   0  0  0  0  0  0  0  0  0  0  0  0
  1  2  1  0  0  0
  2  3  2  0  0  0
  3 15  1  0  0  0
 15 16  1  0  0  0
 16 17  1  0  0  0
 17 18  2  0  0  0
 18 19  1  0  0  0
 19 20  2  0  0  0
 20 21  1  0  0  0
 21 22  2  0  0  0
  2  4  1  0  0  0
  4  5  2  0  0  0
  5  6  1  0  0  0
  6  7  2  0  0  0
  7  8  1  0  0  0
  7  9  1  0  0  0
  9 10  1  0  0  0
  9 11  2  0  0  0
 11 12  1  0  0  0
 22 17  1  0  0  0
 11  4  1  0  0  0
  8 13  1  0  0  0
 12 14  1  0  0  0
M  END
> <minimizedAffinity>
-8.59252

> <CNNscore>
0.8677604198

> <CNNaffinity>
7.1731185913

> <CNN_VS>
6.2245483398

> <CNNaffinity_variance>
0.9347282648

$$$$
[H]Oc1c([H])c([H])c(/C(=N/OC([H])([H])c2c([H])c([H])c([H])c([H])c2[H])C([H])([H])[H])c(O[H])c1F


 22 23  0  0  0  0  0  0  0  0999 V2000
   10.0342   45.7554  129.1007 C   0  0  0  0  0  0  0  0  0  0  0  0
    8.7025   45.9903  129.6756 C   0  0  0  0  0  0  0  0  0  0  0  0
    8.0117   44.9995  130.1294 N   0  0  0  0  0  0  0  0  0  0  0  0
    8.1756   47.3610  129.7246 C   0  0  0  0  0  0  0  0  0  0  0  0
    9.0409   48.4151  130.0539 C   0  0  0  0  0  0  0  0  0  0  0  0
    8.6130   49.7199  130.1176 C   0  0  0  0  0  0  0  0  0  0  0  0
    7.3009   50.0564  129.8584 C   0  0  0  0  0  0  0  0  0  0  0  0
    6.8751   51.3825  129.9252 O   0  0  0  0  0  0  0  0  0  0  0  0
    6.4417   49.0307  129.5341 C   0  0  0  0  0  0  0  0  0  0  0  0
    5.1515   49.3471  129.2774 F   0  0  0  0  0  0  0  0  0  0  0  0
    6.8754   47.6998  129.4685 C   0  0  0  0  0  0  0  0  0  0  0  0
    5.9698   46.7180  129.1390 O   0  0  0  0  0  0  0  0  0  0  0  0
    5.9013   51.5753  129.7257 H   0  0  0  0  0  0  0  0  0  0  0  0
    5.0058   46.8889  128.9390 H   0  0  0  0  0  0  0  0  0  0  0  0
    8.5559   43.7434  130.0565 O   0  0  0  0  0  0  0  0  0  0  0  0
    8.6304   42.9699  131.2137 C   0  0  0  0  0  0  0  0  0  0  0  0
    9.8417   43.3351  132.0122 C   0  0  0  0  0  0  0  0  0  0  0  0
   11.0961   42.9648  131.5831 C   0  0  0  0  0  0  0  0  0  0  0  0
   12.2169   43.2985  132.3151 C   0  0  0  0  0  0  0  0  0  0  0  0
   12.1249   44.0152  133.5038 C   0  0  0  0  0  0  0  0  0  0  0  0
   10.8625   44.3723  133.9098 C   0  0  0  0  0  0  0  0  0  0  0  0
    9.7428   44.0390  133.1785 C   0  0  0  0  0  0  0  0  0  0  0  0
  1  2  1  0  0  0
  2  3  2  0  0  0
  3 15  1  0  0  0
 15 16  1  0  0  0
 16 17  1  0  0  0
 17 18  2  0  0  0
 18 19  1  0  0  0
 19 20  2  0  0  0
 20 21  1  0  0  0
 21 22  2  0  0  0
  2  4  1  0  0  0
  4  5  2  0  0  0
  5  6  1  0  0  0
  6  7  2  0  0  0
  7  8  1  0  0  0
  7  9  1  0  0  0
  9 10  1  0  0  0
  9 11  2  0  0  0
 11 12  1  0  0  0
 22 17  1  0  0  0
 11  4  1  0  0  0
  8 13  1  0  0  0
 12 14  1  0  0  0
M  END
> <minimizedAffinity>
-8.63885

> <CNNscore>
0.8453418016

> <CNNaffinity>
7.0635194778

> <CNN_VS>
5.9710884094

> <CNNaffinity_variance>
0.6407416463

$$$$
[H]Oc1c([H])c([H])c(/C(=N/OC([H])([H])c2c([H])c([H])c([H])c([H])c2[H])C([H])([H])[H])c(O[H])c1F


 22 23  0  0  0  0  0  0  0  0999 V2000
    8.8773   46.2376  132.9958 C   0  0  0  0  0  0  0  0  0  0  0  0
    9.6107   46.8763  131.8944 C   0  0  0  0  0  0  0  0  0  0  0  0
   10.8374   46.5506  131.6616 N   0  0  0  0  0  0  0  0  0  0  0  0
    8.9295   47.8835  131.0696 C   0  0  0  0  0  0  0  0  0  0  0  0
    8.8408   49.2035  131.5363 C   0  0  0  0  0  0  0  0  0  0  0  0
    8.2175   50.1940  130.8152 C   0  0  0  0  0  0  0  0  0  0  0  0
    7.6449   49.9334  129.5879 C   0  0  0  0  0  0  0  0  0  0  0  0
    7.0144   50.9440  128.8629 O   0  0  0  0  0  0  0  0  0  0  0  0
    7.7252   48.6416  129.1189 C   0  0  0  0  0  0  0  0  0  0  0  0
    7.1674   48.3724  127.9159 F   0  0  0  0  0  0  0  0  0  0  0  0
    8.3600   47.6301  129.8521 C   0  0  0  0  0  0  0  0  0  0  0  0
    8.4084   46.3578  129.3310 O   0  0  0  0  0  0  0  0  0  0  0  0
    6.6103   50.6994  127.9673 H   0  0  0  0  0  0  0  0  0  0  0  0
    8.0157   46.0978  128.4498 H   0  0  0  0  0  0  0  0  0  0  0  0
   11.4198   45.6046  132.4648 O   0  0  0  0  0  0  0  0  0  0  0  0
   12.0145   44.4900  131.8759 C   0  0  0  0  0  0  0  0  0  0  0  0
   11.3044   44.1226  130.6114 C   0  0  0  0  0  0  0  0  0  0  0  0
   10.2102   43.2882  130.6445 C   0  0  0  0  0  0  0  0  0  0  0  0
    9.5512   42.9458  129.4819 C   0  0  0  0  0  0  0  0  0  0  0  0
    9.9620   43.4252  128.2423 C   0  0  0  0  0  0  0  0  0  0  0  0
   11.0560   44.2555  128.2367 C   0  0  0  0  0  0  0  0  0  0  0  0
   11.7143   44.5976  129.3981 C   0  0  0  0  0  0  0  0  0  0  0  0
  1  2  1  0  0  0
  2  3  2  0  0  0
  3 15  1  0  0  0
 15 16  1  0  0  0
 16 17  1  0  0  0
 17 18  2  0  0  0
 18 19  1  0  0  0
 19 20  2  0  0  0
 20 21  1  0  0  0
 21 22  2  0  0  0
  2  4  1  0  0  0
  4  5  2  0  0  0
  5  6  1  0  0  0
  6  7  2  0  0  0
  7  8  1  0  0  0
  7  9  1  0  0  0
  9 10  1  0  0  0
  9 11  2  0  0  0
 11 12  1  0  0  0
 22 17  1  0  0  0
 11  4  1  0  0  0
  8 13  1  0  0  0
 12 14  1  0  0  0
M  END
> <minimizedAffinity>
-9.26268

> <CNNscore>
0.8342107534

> <CNNaffinity>
7.0454034805

> <CNN_VS>
5.8773512840

> <CNNaffinity_variance>
0.5592364073

$$$$
[H]Oc1c([H])c([H])c(/C(=N/OC([H])([H])c2c([H])c([H])c([H])c([H])c2[H])C([H])([H])[H])c(O[H])c1F


 22 23  0  0  0  0  0  0  0  0999 V2000
    7.8403   45.2356  131.6579 C   0  0  0  0  0  0  0  0  0  0  0  0
    7.9291   45.8531  130.3276 C   0  0  0  0  0  0  0  0  0  0  0  0
    8.1914   45.1255  129.2948 N   0  0  0  0  0  0  0  0  0  0  0  0
    7.7159   47.3007  130.1945 C   0  0  0  0  0  0  0  0  0  0  0  0
    6.6259   47.7653  129.4433 C   0  0  0  0  0  0  0  0  0  0  0  0
    6.3692   49.1057  129.2788 C   0  0  0  0  0  0  0  0  0  0  0  0
    7.1789   50.0649  129.8501 C   0  0  0  0  0  0  0  0  0  0  0  0
    6.9114   51.4226  129.6783 O   0  0  0  0  0  0  0  0  0  0  0  0
    8.2521   49.6217  130.5898 C   0  0  0  0  0  0  0  0  0  0  0  0
    9.0546   50.5524  131.1557 F   0  0  0  0  0  0  0  0  0  0  0  0
    8.5159   48.2558  130.7589 C   0  0  0  0  0  0  0  0  0  0  0  0
    9.6038   47.8740  131.5095 O   0  0  0  0  0  0  0  0  0  0  0  0
    7.5371   52.0856  130.1190 H   0  0  0  0  0  0  0  0  0  0  0  0
   10.2319   48.5131  131.9516 H   0  0  0  0  0  0  0  0  0  0  0  0
    8.3807   43.7806  129.4813 O   0  0  0  0  0  0  0  0  0  0  0  0
    9.5880   43.2060  129.0875 C   0  0  0  0  0  0  0  0  0  0  0  0
   10.6358   43.4165  130.1345 C   0  0  0  0  0  0  0  0  0  0  0  0
   10.5893   42.7139  131.3172 C   0  0  0  0  0  0  0  0  0  0  0  0
   11.5525   42.9036  132.2864 C   0  0  0  0  0  0  0  0  0  0  0  0
   12.5986   43.8034  132.1089 C   0  0  0  0  0  0  0  0  0  0  0  0
   12.6219   44.4917  130.9207 C   0  0  0  0  0  0  0  0  0  0  0  0
   11.6596   44.3021  129.9524 C   0  0  0  0  0  0  0  0  0  0  0  0
  1  2  1  0  0  0
  2  3  2  0  0  0
  3 15  1  0  0  0
 15 16  1  0  0  0
 16 17  1  0  0  0
 17 18  2  0  0  0
 18 19  1  0  0  0
 19 20  2  0  0  0
 20 21  1  0  0  0
 21 22  2  0  0  0
  2  4  1  0  0  0
  4  5  2  0  0  0
  5  6  1  0  0  0
  6  7  2  0  0  0
  7  8  1  0  0  0
  7  9  1  0  0  0
  9 10  1  0  0  0
  9 11  2  0  0  0
 11 12  1  0  0  0
 22 17  1  0  0  0
 11  4  1  0  0  0
  8 13  1  0  0  0
 12 14  1  0  0  0
M  END
> <minimizedAffinity>
-8.79131

> <CNNscore>
0.8205453753

> <CNNaffinity>
7.0378236771

> <CNN_VS>
5.7748537064

> <CNNaffinity_variance>
0.7841454744

$$$$
[H]Oc1c([H])c([H])c(/C(=N/OC([H])([H])c2c([H])c([H])c([H])c([H])c2[H])C([H])([H])[H])c(O[H])c1F


 22 23  0  0  0  0  0  0  0  0999 V2000
   10.5819   47.2499  133.3898 C   0  0  0  0  0  0  0  0  0  0  0  0
    9.4275   46.7922  132.6044 C   0  0  0  0  0  0  0  0  0  0  0  0
    8.9582   45.6031  132.7800 N   0  0  0  0  0  0  0  0  0  0  0  0
    8.8217   47.7038  131.6242 C   0  0  0  0  0  0  0  0  0  0  0  0
    9.1694   49.0628  131.6479 C   0  0  0  0  0  0  0  0  0  0  0  0
    8.6400   49.9688  130.7600 C   0  0  0  0  0  0  0  0  0  0  0  0
    7.7339   49.5802  129.7955 C   0  0  0  0  0  0  0  0  0  0  0  0
    7.2015   50.5057  128.8987 O   0  0  0  0  0  0  0  0  0  0  0  0
    7.3845   48.2490  129.7620 C   0  0  0  0  0  0  0  0  0  0  0  0
    6.4964   47.8543  128.8206 F   0  0  0  0  0  0  0  0  0  0  0  0
    7.9228   47.3234  130.6660 C   0  0  0  0  0  0  0  0  0  0  0  0
    7.5352   46.0060  130.5829 O   0  0  0  0  0  0  0  0  0  0  0  0
    6.5403   50.1681  128.2103 H   0  0  0  0  0  0  0  0  0  0  0  0
    6.8845   45.6546  129.9109 H   0  0  0  0  0  0  0  0  0  0  0  0
    9.5651   44.7981  133.7088 O   0  0  0  0  0  0  0  0  0  0  0  0
   10.2519   43.6648  133.2765 C   0  0  0  0  0  0  0  0  0  0  0  0
   10.5330   43.7489  131.8095 C   0  0  0  0  0  0  0  0  0  0  0  0
    9.6829   43.1576  130.9026 C   0  0  0  0  0  0  0  0  0  0  0  0
    9.9368   43.2317  129.5486 C   0  0  0  0  0  0  0  0  0  0  0  0
   11.0506   43.9002  129.0509 C   0  0  0  0  0  0  0  0  0  0  0  0
   11.8827   44.4812  129.9762 C   0  0  0  0  0  0  0  0  0  0  0  0
   11.6291   44.4071  131.3288 C   0  0  0  0  0  0  0  0  0  0  0  0
  1  2  1  0  0  0
  2  3  2  0  0  0
  3 15  1  0  0  0
 15 16  1  0  0  0
 16 17  1  0  0  0
 17 18  2  0  0  0
 18 19  1  0  0  0
 19 20  2  0  0  0
 20 21  1  0  0  0
 21 22  2  0  0  0
  2  4  1  0  0  0
  4  5  2  0  0  0
  5  6  1  0  0  0
  6  7  2  0  0  0
  7  8  1  0  0  0
  7  9  1  0  0  0
  9 10  1  0  0  0
  9 11  2  0  0  0
 11 12  1  0  0  0
 22 17  1  0  0  0
 11  4  1  0  0  0
  8 13  1  0  0  0
 12 14  1  0  0  0
M  END
> <minimizedAffinity>
-8.37465

> <CNNscore>
0.8074687719

> <CNNaffinity>
7.1187515259

> <CNN_VS>
5.7481694221

> <CNNaffinity_variance>
0.6268591881

$$$$
[H]Oc1c([H])c([H])c(/C(=N/OC([H])([H])c2c([H])c([H])c([H])c([H])c2[H])C([H])([H])[H])c(O[H])c1F


 22 23  0  0  0  0  0  0  0  0999 V2000
    9.9630   46.8444  132.8485 C   0  0  0  0  0  0  0  0  0  0  0  0
    8.8694   46.5754  131.9047 C   0  0  0  0  0  0  0  0  0  0  0  0
    8.3489   45.3965  131.8394 N   0  0  0  0  0  0  0  0  0  0  0  0
    8.3828   47.6623  131.0442 C   0  0  0  0  0  0  0  0  0  0  0  0
    8.5786   48.9923  131.4455 C   0  0  0  0  0  0  0  0  0  0  0  0
    8.1484   50.0557  130.6881 C   0  0  0  0  0  0  0  0  0  0  0  0
    7.4983   49.8626  129.4872 C   0  0  0  0  0  0  0  0  0  0  0  0
    7.0651   50.9470  128.7250 O   0  0  0  0  0  0  0  0  0  0  0  0
    7.3000   48.5618  129.0823 C   0  0  0  0  0  0  0  0  0  0  0  0
    6.6633   48.3583  127.9059 F   0  0  0  0  0  0  0  0  0  0  0  0
    7.7376   47.4761  129.8526 C   0  0  0  0  0  0  0  0  0  0  0  0
    7.5105   46.1986  129.3954 O   0  0  0  0  0  0  0  0  0  0  0  0
    6.5930   50.7500  127.8512 H   0  0  0  0  0  0  0  0  0  0  0  0
    7.0469   45.9848  128.5365 H   0  0  0  0  0  0  0  0  0  0  0  0
    8.8447   44.4229  132.6673 O   0  0  0  0  0  0  0  0  0  0  0  0
    9.3849   43.2674  132.1055 C   0  0  0  0  0  0  0  0  0  0  0  0
    9.9382   43.5540  130.7453 C   0  0  0  0  0  0  0  0  0  0  0  0
   11.1601   44.1726  130.6069 C   0  0  0  0  0  0  0  0  0  0  0  0
   11.6756   44.4396  129.3555 C   0  0  0  0  0  0  0  0  0  0  0  0
   10.9882   44.0978  128.1953 C   0  0  0  0  0  0  0  0  0  0  0  0
    9.7718   43.4820  128.3609 C   0  0  0  0  0  0  0  0  0  0  0  0
    9.2568   43.2152  129.6111 C   0  0  0  0  0  0  0  0  0  0  0  0
  1  2  1  0  0  0
  2  3  2  0  0  0
  3 15  1  0  0  0
 15 16  1  0  0  0
 16 17  1  0  0  0
 17 18  2  0  0  0
 18 19  1  0  0  0
 19 20  2  0  0  0
 20 21  1  0  0  0
 21 22  2  0  0  0
  2  4  1  0  0  0
  4  5  2  0  0  0
  5  6  1  0  0  0
  6  7  2  0  0  0
  7  8  1  0  0  0
  7  9  1  0  0  0
  9 10  1  0  0  0
  9 11  2  0  0  0
 11 12  1  0  0  0
 22 17  1  0  0  0
 11  4  1  0  0  0
  8 13  1  0  0  0
 12 14  1  0  0  0
M  END
> <minimizedAffinity>
-9.14350

> <CNNscore>
0.7845010161

> <CNNaffinity>
6.8939146996

> <CNN_VS>
5.4082832336

> <CNNaffinity_variance>
0.3621116579

$$$$
[H]Oc1c([H])c([H])c(/C(=N/OC([H])([H])c2c([H])c([H])c([H])c([H])c2[H])C([H])([H])[H])c(O[H])c1F


 22 23  0  0  0  0  0  0  0  0999 V2000
   10.1822   46.8047  131.1827 C   0  0  0  0  0  0  0  0  0  0  0  0
    9.5103   46.8425  129.8765 C   0  0  0  0  0  0  0  0  0  0  0  0
    9.9819   46.1597  128.8884 N   0  0  0  0  0  0  0  0  0  0  0  0
    8.3027   47.6639  129.7160 C   0  0  0  0  0  0  0  0  0  0  0  0
    7.1087   47.0519  129.3062 C   0  0  0  0  0  0  0  0  0  0  0  0
    5.9437   47.7616  129.1367 C   0  0  0  0  0  0  0  0  0  0  0  0
    5.8943   49.1211  129.3639 C   0  0  0  0  0  0  0  0  0  0  0  0
    4.7084   49.8335  129.1895 O   0  0  0  0  0  0  0  0  0  0  0  0
    7.0597   49.7334  129.7665 C   0  0  0  0  0  0  0  0  0  0  0  0
    7.0250   51.0669  129.9928 F   0  0  0  0  0  0  0  0  0  0  0  0
    8.2486   49.0122  129.9400 C   0  0  0  0  0  0  0  0  0  0  0  0
    9.3815   49.6798  130.3442 O   0  0  0  0  0  0  0  0  0  0  0  0
    4.7264   50.8297  129.3698 H   0  0  0  0  0  0  0  0  0  0  0  0
    9.4185   50.6615  130.5267 H   0  0  0  0  0  0  0  0  0  0  0  0
   11.1116   45.4120  129.0986 O   0  0  0  0  0  0  0  0  0  0  0  0
   11.0082   44.0222  129.1241 C   0  0  0  0  0  0  0  0  0  0  0  0
   10.6294   43.5489  130.4919 C   0  0  0  0  0  0  0  0  0  0  0  0
   11.5845   43.4260  131.4753 C   0  0  0  0  0  0  0  0  0  0  0  0
   11.2415   42.9900  132.7385 C   0  0  0  0  0  0  0  0  0  0  0  0
    9.9300   42.6607  133.0653 C   0  0  0  0  0  0  0  0  0  0  0  0
    8.9966   42.7919  132.0665 C   0  0  0  0  0  0  0  0  0  0  0  0
    9.3393   43.2274  130.8046 C   0  0  0  0  0  0  0  0  0  0  0  0
  1  2  1  0  0  0
  2  3  2  0  0  0
  3 15  1  0  0  0
 15 16  1  0  0  0
 16 17  1  0  0  0
 17 18  2  0  0  0
 18 19  1  0  0  0
 19 20  2  0  0  0
 20 21  1  0  0  0
 21 22  2  0  0  0
  2  4  1  0  0  0
  4  5  2  0  0  0
  5  6  1  0  0  0
  6  7  2  0  0  0
  7  8  1  0  0  0
  7  9  1  0  0  0
  9 10  1  0  0  0
  9 11  2  0  0  0
 11 12  1  0  0  0
 22 17  1  0  0  0
 11  4  1  0  0  0
  8 13  1  0  0  0
 12 14  1  0  0  0
M  END
> <minimizedAffinity>
-7.87885

> <CNNscore>
0.7308821082

> <CNNaffinity>
6.7855324745

> <CNN_VS>
4.9594244957

> <CNNaffinity_variance>
0.4115076661

$$$$
[H]Oc1c([H])c([H])c(/C(=N/OC([H])([H])c2c([H])c([H])c([H])c([H])c2[H])C([H])([H])[H])c(O[H])c1F


 22 23  0  0  0  0  0  0  0  0999 V2000
    8.3619   45.2855  132.7020 C   0  0  0  0  0  0  0  0  0  0  0  0
    9.3336   46.1843  132.0640 C   0  0  0  0  0  0  0  0  0  0  0  0
   10.5970   45.9384  132.1559 N   0  0  0  0  0  0  0  0  0  0  0  0
    8.8464   47.3576  131.3259 C   0  0  0  0  0  0  0  0  0  0  0  0
    8.0682   47.1665  130.1743 C   0  0  0  0  0  0  0  0  0  0  0  0
    7.5810   48.2199  129.4377 C   0  0  0  0  0  0  0  0  0  0  0  0
    7.8372   49.5258  129.8000 C   0  0  0  0  0  0  0  0  0  0  0  0
    7.3392   50.5886  129.0471 O   0  0  0  0  0  0  0  0  0  0  0  0
    8.5999   49.7265  130.9284 C   0  0  0  0  0  0  0  0  0  0  0  0
    8.8587   51.0029  131.2950 F   0  0  0  0  0  0  0  0  0  0  0  0
    9.0977   48.6544  131.6810 C   0  0  0  0  0  0  0  0  0  0  0  0
    9.8542   48.9181  132.7994 O   0  0  0  0  0  0  0  0  0  0  0  0
    7.5564   51.5279  129.3568 H   0  0  0  0  0  0  0  0  0  0  0  0
   10.0787   49.8374  133.1202 H   0  0  0  0  0  0  0  0  0  0  0  0
   10.9913   44.8287  132.8575 O   0  0  0  0  0  0  0  0  0  0  0  0
   11.5483   43.7539  132.1667 C   0  0  0  0  0  0  0  0  0  0  0  0
   11.0903   43.7510  130.7425 C   0  0  0  0  0  0  0  0  0  0  0  0
    9.9836   43.0230  130.3685 C   0  0  0  0  0  0  0  0  0  0  0  0
    9.5563   43.0163  129.0568 C   0  0  0  0  0  0  0  0  0  0  0  0
   10.2202   43.7377  128.0698 C   0  0  0  0  0  0  0  0  0  0  0  0
   11.3211   44.4552  128.4688 C   0  0  0  0  0  0  0  0  0  0  0  0
   11.7479   44.4619  129.7793 C   0  0  0  0  0  0  0  0  0  0  0  0
  1  2  1  0  0  0
  2  3  2  0  0  0
  3 15  1  0  0  0
 15 16  1  0  0  0
 16 17  1  0  0  0
 17 18  2  0  0  0
 18 19  1  0  0  0
 19 20  2  0  0  0
 20 21  1  0  0  0
 21 22  2  0  0  0
  2  4  1  0  0  0
  4  5  2  0  0  0
  5  6  1  0  0  0
  6  7  2  0  0  0
  7  8  1  0  0  0
  7  9  1  0  0  0
  9 10  1  0  0  0
  9 11  2  0  0  0
 11 12  1  0  0  0
 22 17  1  0  0  0
 11  4  1  0  0  0
  8 13  1  0  0  0
 12 14  1  0  0  0
M  END
> <minimizedAffinity>
-8.73390

> <CNNscore>
0.7228518128

> <CNNaffinity>
6.8468575478

> <CNN_VS>
4.9492635727

> <CNNaffinity_variance>
0.4265430868

$$$$
[H]Oc1c([H])c([H])c(-c2c([H])c([H])c3c([H])c(O[H])c([H])c([H])c3c2[H])c(O[H])c1F


 23 25  0  0  0  0  0  0  0  0999 V2000
   13.0077   42.3443  132.8685 O   0  0  0  0  0  0  0  0  0  0  0  0
   12.2349   43.3707  132.3456 C   0  0  0  0  0  0  0  0  0  0  0  0
   12.5074   43.8167  131.0741 C   0  0  0  0  0  0  0  0  0  0  0  0
   11.8009   44.8296  130.4619 C   0  0  0  0  0  0  0  0  0  0  0  0
   10.7545   45.4494  131.1416 C   0  0  0  0  0  0  0  0  0  0  0  0
   10.0292   46.4685  130.5505 C   0  0  0  0  0  0  0  0  0  0  0  0
    9.0040   47.0473  131.2674 C   0  0  0  0  0  0  0  0  0  0  0  0
    8.7048   46.6183  132.5542 C   0  0  0  0  0  0  0  0  0  0  0  0
    9.4484   45.6024  133.1081 C   0  0  0  0  0  0  0  0  0  0  0  0
   10.4826   45.0000  132.4182 C   0  0  0  0  0  0  0  0  0  0  0  0
   11.2097   43.9751  133.0168 C   0  0  0  0  0  0  0  0  0  0  0  0
   13.8568   42.4784  133.3931 H   0  0  0  0  0  0  0  0  0  0  0  0
    8.2277   48.1237  130.6640 C   0  0  0  0  0  0  0  0  0  0  0  0
    8.6092   49.4398  130.7864 C   0  0  0  0  0  0  0  0  0  0  0  0
    7.8630   50.4565  130.2096 C   0  0  0  0  0  0  0  0  0  0  0  0
    6.7214   50.1631  129.5008 C   0  0  0  0  0  0  0  0  0  0  0  0
    5.9948   51.2130  128.9336 O   0  0  0  0  0  0  0  0  0  0  0  0
    6.3433   48.8647  129.3789 C   0  0  0  0  0  0  0  0  0  0  0  0
    5.2029   48.6067  128.6678 F   0  0  0  0  0  0  0  0  0  0  0  0
    7.0758   47.8362  129.9481 C   0  0  0  0  0  0  0  0  0  0  0  0
    6.6314   46.5448  129.7826 O   0  0  0  0  0  0  0  0  0  0  0  0
    6.2857   52.1760  129.0307 H   0  0  0  0  0  0  0  0  0  0  0  0
    5.7900   46.3723  129.2561 H   0  0  0  0  0  0  0  0  0  0  0  0
  1  2  1  0  0  0
  2  3  2  0  0  0
  3  4  1  0  0  0
  4  5  2  0  0  0
  5  6  1  0  0  0
  6  7  2  0  0  0
  7  8  1  0  0  0
  8  9  2  0  0  0
  9 10  1  0  0  0
 10 11  2  0  0  0
  7 13  1  0  0  0
 13 14  2  0  0  0
 14 15  1  0  0  0
 15 16  2  0  0  0
 16 17  1  0  0  0
 16 18  1  0  0  0
 18 19  1  0  0  0
 18 20  2  0  0  0
 20 21  1  0  0  0
 11  2  1  0  0  0
 20 13  1  0  0  0
 10  5  1  0  0  0
  1 12  1  0  0  0
 17 22  1  0  0  0
 21 23  1  0  0  0
M  END
> <minimizedAffinity>
-8.06844

> <CNNscore>
0.6848071218

> <CNNaffinity>
7.1024107933

> <CNN_VS>
4.8637814522

> <CNNaffinity_variance>
0.8776531219

$$$$
[H]Oc1c([H])c([H])c(-c2c([H])c([H])c3c([H])c(O[H])c([H])c([H])c3c2[H])c(O[H])c1F


 23 25  0  0  0  0  0  0  0  0999 V2000
   13.0193   42.6494  132.8263 O   0  0  0  0  0  0  0  0  0  0  0  0
   11.9898   43.5045  132.4612 C   0  0  0  0  0  0  0  0  0  0  0  0
   11.0370   43.8246  133.3990 C   0  0  0  0  0  0  0  0  0  0  0  0
    9.9747   44.6637  133.1398 C   0  0  0  0  0  0  0  0  0  0  0  0
    9.8351   45.2292  131.8741 C   0  0  0  0  0  0  0  0  0  0  0  0
    8.7782   46.0746  131.5872 C   0  0  0  0  0  0  0  0  0  0  0  0
    8.6877   46.6068  130.3189 C   0  0  0  0  0  0  0  0  0  0  0  0
    9.6350   46.3021  129.3499 C   0  0  0  0  0  0  0  0  0  0  0  0
   10.6715   45.4575  129.6730 C   0  0  0  0  0  0  0  0  0  0  0  0
   10.7930   44.9064  130.9339 C   0  0  0  0  0  0  0  0  0  0  0  0
   11.8578   44.0563  131.2183 C   0  0  0  0  0  0  0  0  0  0  0  0
   12.9884   41.6468  132.7364 H   0  0  0  0  0  0  0  0  0  0  0  0
    7.5813   47.4991  129.9947 C   0  0  0  0  0  0  0  0  0  0  0  0
    6.4062   47.0215  129.4620 C   0  0  0  0  0  0  0  0  0  0  0  0
    5.3601   47.8789  129.1559 C   0  0  0  0  0  0  0  0  0  0  0  0
    5.4816   49.2302  129.3817 C   0  0  0  0  0  0  0  0  0  0  0  0
    4.4072   50.0638  129.0612 O   0  0  0  0  0  0  0  0  0  0  0  0
    6.6406   49.7034  129.9074 C   0  0  0  0  0  0  0  0  0  0  0  0
    6.7294   51.0524  130.1197 F   0  0  0  0  0  0  0  0  0  0  0  0
    7.6960   48.8623  130.2193 C   0  0  0  0  0  0  0  0  0  0  0  0
    8.8395   49.4136  130.7493 O   0  0  0  0  0  0  0  0  0  0  0  0
    3.5489   49.7006  128.6702 H   0  0  0  0  0  0  0  0  0  0  0  0
    8.8883   50.4086  130.8993 H   0  0  0  0  0  0  0  0  0  0  0  0
  1  2  1  0  0  0
  2  3  2  0  0  0
  3  4  1  0  0  0
  4  5  2  0  0  0
  5  6  1  0  0  0
  6  7  2  0  0  0
  7  8  1  0  0  0
  8  9  2  0  0  0
  9 10  1  0  0  0
 10 11  2  0  0  0
  7 13  1  0  0  0
 13 14  2  0  0  0
 14 15  1  0  0  0
 15 16  2  0  0  0
 16 17  1  0  0  0
 16 18  1  0  0  0
 18 19  1  0  0  0
 18 20  2  0  0  0
 20 21  1  0  0  0
 11  2  1  0  0  0
 20 13  1  0  0  0
 10  5  1  0  0  0
  1 12  1  0  0  0
 17 22  1  0  0  0
 21 23  1  0  0  0
M  END
> <minimizedAffinity>
-9.07187

> <CNNscore>
0.6563357711

> <CNNaffinity>
6.9228858948

> <CNN_VS>
4.5437378883

> <CNNaffinity_variance>
0.6266220808

$$$$
[H]Oc1c([H])c([H])c(-c2c([H])c([H])c3c([H])c(O[H])c([H])c([H])c3c2[H])c(O[H])c1F


 23 25  0  0  0  0  0  0  0  0999 V2000
    6.5719   52.1525  128.9207 O   0  0  0  0  0  0  0  0  0  0  0  0
    7.0045   50.8996  129.3298 C   0  0  0  0  0  0  0  0  0  0  0  0
    6.5297   49.7918  128.6686 C   0  0  0  0  0  0  0  0  0  0  0  0
    6.8955   48.5035  128.9949 C   0  0  0  0  0  0  0  0  0  0  0  0
    7.7885   48.2841  130.0416 C   0  0  0  0  0  0  0  0  0  0  0  0
    8.1722   47.0014  130.3898 C   0  0  0  0  0  0  0  0  0  0  0  0
    9.0584   46.8407  131.4334 C   0  0  0  0  0  0  0  0  0  0  0  0
    9.5555   47.9406  132.1205 C   0  0  0  0  0  0  0  0  0  0  0  0
    9.1505   49.2003  131.7450 C   0  0  0  0  0  0  0  0  0  0  0  0
    8.2640   49.3979  130.7042 C   0  0  0  0  0  0  0  0  0  0  0  0
    7.8805   50.6901  130.3571 C   0  0  0  0  0  0  0  0  0  0  0  0
    5.7591   52.6232  129.2841 H   0  0  0  0  0  0  0  0  0  0  0  0
    9.4752   45.4976  131.8178 C   0  0  0  0  0  0  0  0  0  0  0  0
    9.2776   45.0222  133.0936 C   0  0  0  0  0  0  0  0  0  0  0  0
    9.6789   43.7434  133.4496 C   0  0  0  0  0  0  0  0  0  0  0  0
   10.2852   42.9241  132.5261 C   0  0  0  0  0  0  0  0  0  0  0  0
   10.6763   41.6420  132.9204 O   0  0  0  0  0  0  0  0  0  0  0  0
   10.4811   43.3915  131.2665 C   0  0  0  0  0  0  0  0  0  0  0  0
   11.0870   42.5516  130.3719 F   0  0  0  0  0  0  0  0  0  0  0  0
   10.0870   44.6657  130.8929 C   0  0  0  0  0  0  0  0  0  0  0  0
   10.3181   45.0706  129.5985 O   0  0  0  0  0  0  0  0  0  0  0  0
   10.5255   41.3044  133.8609 H   0  0  0  0  0  0  0  0  0  0  0  0
   10.7651   44.4398  128.9527 H   0  0  0  0  0  0  0  0  0  0  0  0
  1  2  1  0  0  0
  2  3  2  0  0  0
  3  4  1  0  0  0
  4  5  2  0  0  0
  5  6  1  0  0  0
  6  7  2  0  0  0
  7  8  1  0  0  0
  8  9  2  0  0  0
  9 10  1  0  0  0
 10 11  2  0  0  0
  7 13  1  0  0  0
 13 14  2  0  0  0
 14 15  1  0  0  0
 15 16  2  0  0  0
 16 17  1  0  0  0
 16 18  1  0  0  0
 18 19  1  0  0  0
 18 20  2  0  0  0
 20 21  1  0  0  0
 11  2  1  0  0  0
 20 13  1  0  0  0
 10  5  1  0  0  0
  1 12  1  0  0  0
 17 22  1  0  0  0
 21 23  1  0  0  0
M  END
> <minimizedAffinity>
-7.08677

> <CNNscore>
0.6560485363

> <CNNaffinity>
6.9239020348

> <CNN_VS>
4.5424156189

> <CNNaffinity_variance>
0.8915129900

$$$$
[H]Oc1c([H])c([H])c(-c2c([H])c([H])c3c([H])c(O[H])c([H])c([H])c3c2[H])c(O[H])c1F


 23 25  0  0  0  0  0  0  0  0999 V2000
   11.5136   40.9222  132.1245 O   0  0  0  0  0  0  0  0  0  0  0  0
   10.9040   42.1521  131.9248 C   0  0  0  0  0  0  0  0  0  0  0  0
   10.1066   42.6605  132.9225 C   0  0  0  0  0  0  0  0  0  0  0  0
    9.4561   43.8718  132.8255 C   0  0  0  0  0  0  0  0  0  0  0  0
    9.5956   44.6393  131.6711 C   0  0  0  0  0  0  0  0  0  0  0  0
    8.9537   45.8586  131.5476 C   0  0  0  0  0  0  0  0  0  0  0  0
    9.1259   46.5774  130.3841 C   0  0  0  0  0  0  0  0  0  0  0  0
    9.9254   46.0901  129.3582 C   0  0  0  0  0  0  0  0  0  0  0  0
   10.5473   44.8736  129.5180 C   0  0  0  0  0  0  0  0  0  0  0  0
   10.3967   44.1269  130.6704 C   0  0  0  0  0  0  0  0  0  0  0  0
   11.0444   42.9008  130.7904 C   0  0  0  0  0  0  0  0  0  0  0  0
   11.1068   40.0355  131.8745 H   0  0  0  0  0  0  0  0  0  0  0  0
    8.4577   47.8643  130.2325 C   0  0  0  0  0  0  0  0  0  0  0  0
    9.0887   49.0433  130.5558 C   0  0  0  0  0  0  0  0  0  0  0  0
    8.4438   50.2622  130.4090 C   0  0  0  0  0  0  0  0  0  0  0  0
    7.1538   50.3121  129.9345 C   0  0  0  0  0  0  0  0  0  0  0  0
    6.5357   51.5578  129.7998 O   0  0  0  0  0  0  0  0  0  0  0  0
    6.5294   49.1495  129.6150 C   0  0  0  0  0  0  0  0  0  0  0  0
    5.2466   49.2338  129.1459 F   0  0  0  0  0  0  0  0  0  0  0  0
    7.1576   47.9230  129.7550 C   0  0  0  0  0  0  0  0  0  0  0  0
    6.4622   46.7869  129.4109 O   0  0  0  0  0  0  0  0  0  0  0  0
    7.0101   52.4171  130.0408 H   0  0  0  0  0  0  0  0  0  0  0  0
    5.5186   46.8667  129.0671 H   0  0  0  0  0  0  0  0  0  0  0  0
  1  2  1  0  0  0
  2  3  2  0  0  0
  3  4  1  0  0  0
  4  5  2  0  0  0
  5  6  1  0  0  0
  6  7  2  0  0  0
  7  8  1  0  0  0
  8  9  2  0  0  0
  9 10  1  0  0  0
 10 11  2  0  0  0
  7 13  1  0  0  0
 13 14  2  0  0  0
 14 15  1  0  0  0
 15 16  2  0  0  0
 16 17  1  0  0  0
 16 18  1  0  0  0
 18 19  1  0  0  0
 18 20  2  0  0  0
 20 21  1  0  0  0
 11  2  1  0  0  0
 20 13  1  0  0  0
 10  5  1  0  0  0
  1 12  1  0  0  0
 17 22  1  0  0  0
 21 23  1  0  0  0
M  END
> <minimizedAffinity>
-8.80124

> <CNNscore>
0.6366239190

> <CNNaffinity>
6.9155907631

> <CNN_VS>
4.4026303291

> <CNNaffinity_variance>
0.7421063185

$$$$
[H]Oc1c([H])c([H])c(-c2c([H])c([H])c3c([H])c(O[H])c([H])c([H])c3c2[H])c(O[H])c1F


 23 25  0  0  0  0  0  0  0  0999 V2000
    6.8173   51.7973  129.2524 O   0  0  0  0  0  0  0  0  0  0  0  0
    7.3366   50.5397  129.5227 C   0  0  0  0  0  0  0  0  0  0  0  0
    7.0108   49.4997  128.6847 C   0  0  0  0  0  0  0  0  0  0  0  0
    7.4724   48.2133  128.8634 C   0  0  0  0  0  0  0  0  0  0  0  0
    8.3117   47.9244  129.9373 C   0  0  0  0  0  0  0  0  0  0  0  0
    8.7892   46.6419  130.1397 C   0  0  0  0  0  0  0  0  0  0  0  0
    9.6164   46.4109  131.2179 C   0  0  0  0  0  0  0  0  0  0  0  0
    9.9635   47.4413  132.0822 C   0  0  0  0  0  0  0  0  0  0  0  0
    9.4688   48.7032  131.8480 C   0  0  0  0  0  0  0  0  0  0  0  0
    8.6376   48.9701  130.7775 C   0  0  0  0  0  0  0  0  0  0  0  0
    8.1594   50.2619  130.5775 C   0  0  0  0  0  0  0  0  0  0  0  0
    5.9424   52.1435  129.6113 H   0  0  0  0  0  0  0  0  0  0  0  0
   10.1301   45.0665  131.4506 C   0  0  0  0  0  0  0  0  0  0  0  0
   11.1811   44.5630  130.7194 C   0  0  0  0  0  0  0  0  0  0  0  0
   11.6615   43.2823  130.9477 C   0  0  0  0  0  0  0  0  0  0  0  0
   11.0908   42.4894  131.9158 C   0  0  0  0  0  0  0  0  0  0  0  0
   11.6009   41.2045  132.1181 O   0  0  0  0  0  0  0  0  0  0  0  0
   10.0535   42.9845  132.6385 C   0  0  0  0  0  0  0  0  0  0  0  0
    9.5081   42.1704  133.5938 F   0  0  0  0  0  0  0  0  0  0  0  0
    9.5603   44.2611  132.4245 C   0  0  0  0  0  0  0  0  0  0  0  0
    8.5069   44.6950  133.1956 O   0  0  0  0  0  0  0  0  0  0  0  0
   12.3736   40.8461  131.5741 H   0  0  0  0  0  0  0  0  0  0  0  0
    8.1172   44.0830  133.8945 H   0  0  0  0  0  0  0  0  0  0  0  0
  1  2  1  0  0  0
  2  3  2  0  0  0
  3  4  1  0  0  0
  4  5  2  0  0  0
  5  6  1  0  0  0
  6  7  2  0  0  0
  7  8  1  0  0  0
  8  9  2  0  0  0
  9 10  1  0  0  0
 10 11  2  0  0  0
  7 13  1  0  0  0
 13 14  2  0  0  0
 14 15  1  0  0  0
 15 16  2  0  0  0
 16 17  1  0  0  0
 16 18  1  0  0  0
 18 19  1  0  0  0
 18 20  2  0  0  0
 20 21  1  0  0  0
 11  2  1  0  0  0
 20 13  1  0  0  0
 10  5  1  0  0  0
  1 12  1  0  0  0
 17 22  1  0  0  0
 21 23  1  0  0  0
M  END
> <minimizedAffinity>
-9.28328

> <CNNscore>
0.6334394217

> <CNNaffinity>
6.9026861191

> <CNN_VS>
4.3724336624

> <CNNaffinity_variance>
0.6527069807

$$$$
[H]Oc1c([H])c([H])c(-c2c([H])c([H])c3c([H])c(O[H])c([H])c([H])c3c2[H])c(O[H])c1F


 23 25  0  0  0  0  0  0  0  0999 V2000
    6.7912   51.8080  129.1075 O   0  0  0  0  0  0  0  0  0  0  0  0
    7.2766   50.5422  129.4014 C   0  0  0  0  0  0  0  0  0  0  0  0
    7.1354   49.5491  128.4614 C   0  0  0  0  0  0  0  0  0  0  0  0
    7.5820   48.2593  128.6530 C   0  0  0  0  0  0  0  0  0  0  0  0
    8.2108   47.9173  129.8483 C   0  0  0  0  0  0  0  0  0  0  0  0
    8.6684   46.6301  130.0665 C   0  0  0  0  0  0  0  0  0  0  0  0
    9.2835   46.3456  131.2668 C   0  0  0  0  0  0  0  0  0  0  0  0
    9.4408   47.3278  132.2362 C   0  0  0  0  0  0  0  0  0  0  0  0
    8.9726   48.5961  131.9826 C   0  0  0  0  0  0  0  0  0  0  0  0
    8.3515   48.9160  130.7909 C   0  0  0  0  0  0  0  0  0  0  0  0
    7.8926   50.2123  130.5756 C   0  0  0  0  0  0  0  0  0  0  0  0
    5.8574   52.1240  129.3137 H   0  0  0  0  0  0  0  0  0  0  0  0
    9.7722   44.9953  131.5181 C   0  0  0  0  0  0  0  0  0  0  0  0
    8.9113   43.9265  131.6137 C   0  0  0  0  0  0  0  0  0  0  0  0
    9.3863   42.6459  131.8541 C   0  0  0  0  0  0  0  0  0  0  0  0
   10.7353   42.4225  132.0018 C   0  0  0  0  0  0  0  0  0  0  0  0
   11.1776   41.1193  132.2431 O   0  0  0  0  0  0  0  0  0  0  0  0
   11.5865   43.4761  131.9077 C   0  0  0  0  0  0  0  0  0  0  0  0
   12.9222   43.2200  132.0595 F   0  0  0  0  0  0  0  0  0  0  0  0
   11.1305   44.7618  131.6681 C   0  0  0  0  0  0  0  0  0  0  0  0
   12.0521   45.7799  131.5853 O   0  0  0  0  0  0  0  0  0  0  0  0
   10.5348   40.3424  132.3113 H   0  0  0  0  0  0  0  0  0  0  0  0
   13.0316   45.5741  131.6993 H   0  0  0  0  0  0  0  0  0  0  0  0
  1  2  1  0  0  0
  2  3  2  0  0  0
  3  4  1  0  0  0
  4  5  2  0  0  0
  5  6  1  0  0  0
  6  7  2  0  0  0
  7  8  1  0  0  0
  8  9  2  0  0  0
  9 10  1  0  0  0
 10 11  2  0  0  0
  7 13  1  0  0  0
 13 14  2  0  0  0
 14 15  1  0  0  0
 15 16  2  0  0  0
 16 17  1  0  0  0
 16 18  1  0  0  0
 18 19  1  0  0  0
 18 20  2  0  0  0
 20 21  1  0  0  0
 11  2  1  0  0  0
 20 13  1  0  0  0
 10  5  1  0  0  0
  1 12  1  0  0  0
 17 22  1  0  0  0
 21 23  1  0  0  0
M  END
> <minimizedAffinity>
-8.76064

> <CNNscore>
0.5708799958

> <CNNaffinity>
6.8444914818

> <CNN_VS>
3.9073832035

> <CNNaffinity_variance>
0.6940022707

$$$$
[H]Oc1c([H])c([H])c(-c2c([H])c([H])c3c([H])c(O[H])c([H])c([H])c3c2[H])c(O[H])c1F


 23 25  0  0  0  0  0  0  0  0999 V2000
   11.5167   40.8945  132.1383 O   0  0  0  0  0  0  0  0  0  0  0  0
   10.9222   42.1156  131.8555 C   0  0  0  0  0  0  0  0  0  0  0  0
   10.0052   42.6223  132.7455 C   0  0  0  0  0  0  0  0  0  0  0  0
    9.3580   43.8250  132.5598 C   0  0  0  0  0  0  0  0  0  0  0  0
    9.6269   44.5849  131.4235 C   0  0  0  0  0  0  0  0  0  0  0  0
    8.9914   45.7955  131.2126 C   0  0  0  0  0  0  0  0  0  0  0  0
    9.2944   46.5072  130.0716 C   0  0  0  0  0  0  0  0  0  0  0  0
   10.2166   46.0212  129.1537 C   0  0  0  0  0  0  0  0  0  0  0  0
   10.8280   44.8136  129.3982 C   0  0  0  0  0  0  0  0  0  0  0  0
   10.5480   44.0742  130.5311 C   0  0  0  0  0  0  0  0  0  0  0  0
   11.1898   42.8568  130.7393 C   0  0  0  0  0  0  0  0  0  0  0  0
   11.1525   40.0011  131.8496 H   0  0  0  0  0  0  0  0  0  0  0  0
    8.6354   47.7848  129.8289 C   0  0  0  0  0  0  0  0  0  0  0  0
    7.7440   47.9475  128.7937 C   0  0  0  0  0  0  0  0  0  0  0  0
    7.1232   49.1674  128.5706 C   0  0  0  0  0  0  0  0  0  0  0  0
    7.3908   50.2417  129.3867 C   0  0  0  0  0  0  0  0  0  0  0  0
    6.7469   51.4552  129.1319 O   0  0  0  0  0  0  0  0  0  0  0  0
    8.2703   50.0830  130.4089 C   0  0  0  0  0  0  0  0  0  0  0  0
    8.5145   51.1711  131.2020 F   0  0  0  0  0  0  0  0  0  0  0  0
    8.8997   48.8723  130.6469 C   0  0  0  0  0  0  0  0  0  0  0  0
    9.7788   48.7864  131.7017 O   0  0  0  0  0  0  0  0  0  0  0  0
    6.0940   51.5620  128.3679 H   0  0  0  0  0  0  0  0  0  0  0  0
    9.9472   49.5969  132.2758 H   0  0  0  0  0  0  0  0  0  0  0  0
  1  2  1  0  0  0
  2  3  2  0  0  0
  3  4  1  0  0  0
  4  5  2  0  0  0
  5  6  1  0  0  0
  6  7  2  0  0  0
  7  8  1  0  0  0
  8  9  2  0  0  0
  9 10  1  0  0  0
 10 11  2  0  0  0
  7 13  1  0  0  0
 13 14  2  0  0  0
 14 15  1  0  0  0
 15 16  2  0  0  0
 16 17  1  0  0  0
 16 18  1  0  0  0
 18 19  1  0  0  0
 18 20  2  0  0  0
 20 21  1  0  0  0
 11  2  1  0  0  0
 20 13  1  0  0  0
 10  5  1  0  0  0
  1 12  1  0  0  0
 17 22  1  0  0  0
 21 23  1  0  0  0
M  END
> <minimizedAffinity>
-8.52783

> <CNNscore>
0.5701571107

> <CNNaffinity>
6.7586565018

> <CNN_VS>
3.8534960747

> <CNNaffinity_variance>
0.7696790099

$$$$
[H]Oc1c([H])c([H])c(-c2c([H])c([H])c3c([H])c(O[H])c([H])c([H])c3c2[H])c(O[H])c1F


 23 25  0  0  0  0  0  0  0  0999 V2000
    6.7986   51.4216  128.4149 O   0  0  0  0  0  0  0  0  0  0  0  0
    7.3393   50.4037  129.1867 C   0  0  0  0  0  0  0  0  0  0  0  0
    7.0658   49.1012  128.8423 C   0  0  0  0  0  0  0  0  0  0  0  0
    7.5525   48.0175  129.5412 C   0  0  0  0  0  0  0  0  0  0  0  0
    8.3636   48.2227  130.6552 C   0  0  0  0  0  0  0  0  0  0  0  0
    8.8653   47.1528  131.3746 C   0  0  0  0  0  0  0  0  0  0  0  0
    9.6629   47.4122  132.4685 C   0  0  0  0  0  0  0  0  0  0  0  0
    9.9570   48.7174  132.8413 C   0  0  0  0  0  0  0  0  0  0  0  0
    9.4396   49.7550  132.1012 C   0  0  0  0  0  0  0  0  0  0  0  0
    8.6370   49.5314  130.9994 C   0  0  0  0  0  0  0  0  0  0  0  0
    8.1343   50.6107  130.2785 C   0  0  0  0  0  0  0  0  0  0  0  0
    5.9045   51.8533  128.5835 H   0  0  0  0  0  0  0  0  0  0  0  0
   10.2012   46.2995  133.2415 C   0  0  0  0  0  0  0  0  0  0  0  0
    9.7262   46.0019  134.4979 C   0  0  0  0  0  0  0  0  0  0  0  0
   10.2459   44.9419  135.2256 C   0  0  0  0  0  0  0  0  0  0  0  0
   11.2518   44.1656  134.6990 C   0  0  0  0  0  0  0  0  0  0  0  0
   11.7510   43.1062  135.4607 O   0  0  0  0  0  0  0  0  0  0  0  0
   11.7219   44.4578  133.4591 C   0  0  0  0  0  0  0  0  0  0  0  0
   12.7227   43.6665  132.9642 F   0  0  0  0  0  0  0  0  0  0  0  0
   11.2152   45.5124  132.7178 C   0  0  0  0  0  0  0  0  0  0  0  0
   11.7409   45.7483  131.4686 O   0  0  0  0  0  0  0  0  0  0  0  0
   11.3935   42.8978  136.3828 H   0  0  0  0  0  0  0  0  0  0  0  0
   12.4773   45.1562  131.1192 H   0  0  0  0  0  0  0  0  0  0  0  0
  1  2  1  0  0  0
  2  3  2  0  0  0
  3  4  1  0  0  0
  4  5  2  0  0  0
  5  6  1  0  0  0
  6  7  2  0  0  0
  7  8  1  0  0  0
  8  9  2  0  0  0
  9 10  1  0  0  0
 10 11  2  0  0  0
  7 13  1  0  0  0
 13 14  2  0  0  0
 14 15  1  0  0  0
 15 16  2  0  0  0
 16 17  1  0  0  0
 16 18  1  0  0  0
 18 19  1  0  0  0
 18 20  2  0  0  0
 20 21  1  0  0  0
 11  2  1  0  0  0
 20 13  1  0  0  0
 10  5  1  0  0  0
  1 12  1  0  0  0
 17 22  1  0  0  0
 21 23  1  0  0  0
M  END
> <minimizedAffinity>
-8.58661

> <CNNscore>
0.5563773513

> <CNNaffinity>
6.5157165527

> <CNN_VS>
3.6251971722

> <CNNaffinity_variance>
0.2384647876

$$$$
[H]Oc1c([H])c([H])c(-c2c([H])c([H])c3c([H])c(O[H])c([H])c([H])c3c2[H])c(O[H])c1F


 23 25  0  0  0  0  0  0  0  0999 V2000
    4.9953   50.5508  129.0703 O   0  0  0  0  0  0  0  0  0  0  0  0
    5.9837   49.7031  129.5486 C   0  0  0  0  0  0  0  0  0  0  0  0
    7.0704   50.2536  130.1857 C   0  0  0  0  0  0  0  0  0  0  0  0
    8.1062   49.5018  130.6973 C   0  0  0  0  0  0  0  0  0  0  0  0
    8.0764   48.1141  130.5770 C   0  0  0  0  0  0  0  0  0  0  0  0
    9.1030   47.3358  131.0814 C   0  0  0  0  0  0  0  0  0  0  0  0
    9.0234   45.9675  130.9353 C   0  0  0  0  0  0  0  0  0  0  0  0
    7.9381   45.3819  130.2964 C   0  0  0  0  0  0  0  0  0  0  0  0
    6.9369   46.1888  129.8080 C   0  0  0  0  0  0  0  0  0  0  0  0
    6.9843   47.5634  129.9369 C   0  0  0  0  0  0  0  0  0  0  0  0
    5.9494   48.3425  129.4279 C   0  0  0  0  0  0  0  0  0  0  0  0
    4.9859   50.9544  128.1476 H   0  0  0  0  0  0  0  0  0  0  0  0
   10.0948   45.1285  131.4585 C   0  0  0  0  0  0  0  0  0  0  0  0
   10.0283   44.5825  132.7195 C   0  0  0  0  0  0  0  0  0  0  0  0
   11.0535   43.7867  133.2084 C   0  0  0  0  0  0  0  0  0  0  0  0
   12.1610   43.5288  132.4347 C   0  0  0  0  0  0  0  0  0  0  0  0
   13.1741   42.7228  132.9601 O   0  0  0  0  0  0  0  0  0  0  0  0
   12.2284   44.0668  131.1899 C   0  0  0  0  0  0  0  0  0  0  0  0
   13.3434   43.7910  130.4459 F   0  0  0  0  0  0  0  0  0  0  0  0
   11.2144   44.8639  130.6849 C   0  0  0  0  0  0  0  0  0  0  0  0
   11.3521   45.3742  129.4148 O   0  0  0  0  0  0  0  0  0  0  0  0
   13.1134   42.3276  133.8882 H   0  0  0  0  0  0  0  0  0  0  0  0
   12.1793   45.1614  128.8806 H   0  0  0  0  0  0  0  0  0  0  0  0
  1  2  1  0  0  0
  2  3  2  0  0  0
  3  4  1  0  0  0
  4  5  2  0  0  0
  5  6  1  0  0  0
  6  7  2  0  0  0
  7  8  1  0  0  0
  8  9  2  0  0  0
  9 10  1  0  0  0
 10 11  2  0  0  0
  7 13  1  0  0  0
 13 14  2  0  0  0
 14 15  1  0  0  0
 15 16  2  0  0  0
 16 17  1  0  0  0
 16 18  1  0  0  0
 18 19  1  0  0  0
 18 20  2  0  0  0
 20 21  1  0  0  0
 11  2  1  0  0  0
 20 13  1  0  0  0
 10  5  1  0  0  0
  1 12  1  0  0  0
 17 22  1  0  0  0
 21 23  1  0  0  0
M  END
> <minimizedAffinity>
-8.10534

> <CNNscore>
0.5495074987

> <CNNaffinity>
6.8905096054

> <CNN_VS>
3.7863867283

> <CNNaffinity_variance>
0.8624189496

$$$$
[H]Oc1c([H])c([H])c(-c2sc3c([H])c(O[H])c([H])c([H])c3c2C(=O)c2c([H])c([H])c([H])c(C(F)(F)F)c2[H])c([H])c1[H]


 31 34  0  0  0  0  0  0  0  0999 V2000
    8.7530   46.5739  130.2059 C   0  0  0  0  0  0  0  0  0  0  0  0
    7.8259   47.0314  128.8170 S   0  0  0  0  0  0  0  0  0  0  0  0
    7.6894   48.6846  129.1319 C   0  0  0  0  0  0  0  0  0  0  0  0
    7.0688   49.7361  128.4407 C   0  0  0  0  0  0  0  0  0  0  0  0
    7.1047   51.0241  128.9101 C   0  0  0  0  0  0  0  0  0  0  0  0
    6.5154   52.1191  128.2864 O   0  0  0  0  0  0  0  0  0  0  0  0
    7.7865   51.1859  130.0862 C   0  0  0  0  0  0  0  0  0  0  0  0
    8.3799   50.1798  130.7496 C   0  0  0  0  0  0  0  0  0  0  0  0
    8.3604   48.8547  130.3006 C   0  0  0  0  0  0  0  0  0  0  0  0
    8.9227   47.7611  130.8771 C   0  0  0  0  0  0  0  0  0  0  0  0
    6.9343   52.7387  127.6335 H   0  0  0  0  0  0  0  0  0  0  0  0
   10.8338   41.3905  131.1631 O   0  0  0  0  0  0  0  0  0  0  0  0
   10.2809   42.6411  130.9266 C   0  0  0  0  0  0  0  0  0  0  0  0
    8.9942   42.9847  131.3106 C   0  0  0  0  0  0  0  0  0  0  0  0
    8.4829   44.2458  131.0564 C   0  0  0  0  0  0  0  0  0  0  0  0
    9.2584   45.2205  130.4050 C   0  0  0  0  0  0  0  0  0  0  0  0
   10.5182   44.8371  130.0510 C   0  0  0  0  0  0  0  0  0  0  0  0
   11.0374   43.5928  130.2914 C   0  0  0  0  0  0  0  0  0  0  0  0
   11.7656   41.1679  130.8884 H   0  0  0  0  0  0  0  0  0  0  0  0
    9.7505   47.7621  132.0693 C   0  0  0  0  0  0  0  0  0  0  0  0
   10.6054   48.7759  132.0840 O   0  0  0  0  0  0  0  0  0  0  0  0
    9.8626   46.9347  133.2135 C   0  0  0  0  0  0  0  0  0  0  0  0
    9.0303   47.2369  134.3075 C   0  0  0  0  0  0  0  0  0  0  0  0
    9.0104   46.4901  135.4315 C   0  0  0  0  0  0  0  0  0  0  0  0
    9.8125   45.3697  135.5817 C   0  0  0  0  0  0  0  0  0  0  0  0
   10.6356   45.0419  134.5331 C   0  0  0  0  0  0  0  0  0  0  0  0
   10.6440   45.8240  133.3891 C   0  0  0  0  0  0  0  0  0  0  0  0
   11.4860   43.7942  134.6245 C   0  0  0  0  0  0  0  0  0  0  0  0
   12.6930   44.0123  133.9947 F   0  0  0  0  0  0  0  0  0  0  0  0
   11.7292   43.4593  135.9264 F   0  0  0  0  0  0  0  0  0  0  0  0
   10.7779   42.7699  133.9480 F   0  0  0  0  0  0  0  0  0  0  0  0
 12 13  1  0  0  0
 13 14  2  0  0  0
 14 15  1  0  0  0
 15 16  2  0  0  0
 16 17  1  0  0  0
 17 18  2  0  0  0
 16  1  1  0  0  0
  1  2  1  0  0  0
  2  3  1  0  0  0
  3  4  2  0  0  0
  4  5  1  0  0  0
  5  6  1  0  0  0
  5  7  2  0  0  0
  7  8  1  0  0  0
  8  9  2  0  0  0
  9 10  1  0  0  0
 10 20  1  0  0  0
 20 21  2  0  0  0
 20 22  1  0  0  0
 22 23  2  0  0  0
 23 24  1  0  0  0
 24 25  2  0  0  0
 25 26  1  0  0  0
 26 27  2  0  0  0
 26 28  1  0  0  0
 28 29  1  0  0  0
 28 30  1  0  0  0
 28 31  1  0  0  0
 18 13  1  0  0  0
 10  1  2  0  0  0
 27 22  1  0  0  0
  9  3  1  0  0  0
 12 19  1  0  0  0
  6 11  1  0  0  0
M  END
> <minimizedAffinity>
-6.98095

> <CNNscore>
0.5419328809

> <CNNaffinity>
7.7623682022

> <CNN_VS>
4.2066826820

> <CNNaffinity_variance>
0.5313333273

$$$$
[H]Oc1c([H])c([H])c(-c2sc3c([H])c(O[H])c([H])c([H])c3c2C(=O)c2c([H])c([H])c([H])c(C(F)(F)F)c2[H])c([H])c1[H]


 31 34  0  0  0  0  0  0  0  0999 V2000
    8.8119   47.0464  132.2394 C   0  0  0  0  0  0  0  0  0  0  0  0
    9.1557   47.3303  133.9124 S   0  0  0  0  0  0  0  0  0  0  0  0
    9.8357   45.8325  134.2932 C   0  0  0  0  0  0  0  0  0  0  0  0
   10.3644   45.3024  135.4798 C   0  0  0  0  0  0  0  0  0  0  0  0
   10.8754   44.0309  135.5331 C   0  0  0  0  0  0  0  0  0  0  0  0
   11.4153   43.4331  136.6674 O   0  0  0  0  0  0  0  0  0  0  0  0
   10.8246   43.3434  134.3503 C   0  0  0  0  0  0  0  0  0  0  0  0
   10.3175   43.8494  133.2140 C   0  0  0  0  0  0  0  0  0  0  0  0
    9.7863   45.1408  133.1252 C   0  0  0  0  0  0  0  0  0  0  0  0
    9.2530   45.7601  132.0404 C   0  0  0  0  0  0  0  0  0  0  0  0
   12.3664   43.4288  136.9520 H   0  0  0  0  0  0  0  0  0  0  0  0
    6.9591   51.0545  128.6876 O   0  0  0  0  0  0  0  0  0  0  0  0
    7.3722   50.0497  129.5508 C   0  0  0  0  0  0  0  0  0  0  0  0
    6.9507   48.7342  129.4379 C   0  0  0  0  0  0  0  0  0  0  0  0
    7.3901   47.7623  130.3204 C   0  0  0  0  0  0  0  0  0  0  0  0
    8.2849   48.0807  131.3566 C   0  0  0  0  0  0  0  0  0  0  0  0
    8.6742   49.3858  131.4242 C   0  0  0  0  0  0  0  0  0  0  0  0
    8.2457   50.3598  130.5620 C   0  0  0  0  0  0  0  0  0  0  0  0
    7.2835   51.9924  128.7800 H   0  0  0  0  0  0  0  0  0  0  0  0
    9.2000   45.2177  130.6952 C   0  0  0  0  0  0  0  0  0  0  0  0
    7.9579   45.1327  130.2385 O   0  0  0  0  0  0  0  0  0  0  0  0
   10.1595   44.7548  129.7616 C   0  0  0  0  0  0  0  0  0  0  0  0
    9.6755   44.2634  128.5348 C   0  0  0  0  0  0  0  0  0  0  0  0
   10.4947   43.8435  127.5479 C   0  0  0  0  0  0  0  0  0  0  0  0
   11.8744   43.8701  127.6792 C   0  0  0  0  0  0  0  0  0  0  0  0
   12.3833   44.3466  128.8618 C   0  0  0  0  0  0  0  0  0  0  0  0
   11.5249   44.7695  129.8642 C   0  0  0  0  0  0  0  0  0  0  0  0
   13.8828   44.4519  129.0308 C   0  0  0  0  0  0  0  0  0  0  0  0
   14.4928   43.3848  128.4060 F   0  0  0  0  0  0  0  0  0  0  0  0
   14.3595   45.6081  128.4809 F   0  0  0  0  0  0  0  0  0  0  0  0
   14.1393   44.3944  130.4233 F   0  0  0  0  0  0  0  0  0  0  0  0
 12 13  1  0  0  0
 13 14  2  0  0  0
 14 15  1  0  0  0
 15 16  2  0  0  0
 16 17  1  0  0  0
 17 18  2  0  0  0
 16  1  1  0  0  0
  1  2  1  0  0  0
  2  3  1  0  0  0
  3  4  2  0  0  0
  4  5  1  0  0  0
  5  6  1  0  0  0
  5  7  2  0  0  0
  7  8  1  0  0  0
  8  9  2  0  0  0
  9 10  1  0  0  0
 10 20  1  0  0  0
 20 21  2  0  0  0
 20 22  1  0  0  0
 22 23  2  0  0  0
 23 24  1  0  0  0
 24 25  2  0  0  0
 25 26  1  0  0  0
 26 27  2  0  0  0
 26 28  1  0  0  0
 28 29  1  0  0  0
 28 30  1  0  0  0
 28 31  1  0  0  0
 18 13  1  0  0  0
 10  1  2  0  0  0
 27 22  1  0  0  0
  9  3  1  0  0  0
 12 19  1  0  0  0
  6 11  1  0  0  0
M  END
> <minimizedAffinity>
-1.82660

> <CNNscore>
0.5318654180

> <CNNaffinity>
7.7823066711

> <CNN_VS>
4.1391396523

> <CNNaffinity_variance>
1.1217882633

$$$$
[H]Oc1c([H])c([H])c(-c2sc3c([H])c(O[H])c([H])c([H])c3c2C(=O)c2c([H])c([H])c([H])c(C(F)(F)F)c2[H])c([H])c1[H]


 31 34  0  0  0  0  0  0  0  0999 V2000
    8.7293   46.6551  130.2092 C   0  0  0  0  0  0  0  0  0  0  0  0
    7.8168   47.1135  128.8109 S   0  0  0  0  0  0  0  0  0  0  0  0
    7.6734   48.7657  129.1273 C   0  0  0  0  0  0  0  0  0  0  0  0
    7.0584   49.8173  128.4313 C   0  0  0  0  0  0  0  0  0  0  0  0
    7.0866   51.1046  128.9035 C   0  0  0  0  0  0  0  0  0  0  0  0
    6.5021   52.1996  128.2754 O   0  0  0  0  0  0  0  0  0  0  0  0
    7.7549   51.2654  130.0874 C   0  0  0  0  0  0  0  0  0  0  0  0
    8.3429   50.2593  130.7555 C   0  0  0  0  0  0  0  0  0  0  0  0
    8.3311   48.9350  130.3038 C   0  0  0  0  0  0  0  0  0  0  0  0
    8.8890   47.8414  130.8845 C   0  0  0  0  0  0  0  0  0  0  0  0
    6.9269   52.8213  127.6283 H   0  0  0  0  0  0  0  0  0  0  0  0
   10.5712   41.3301  130.8133 O   0  0  0  0  0  0  0  0  0  0  0  0
   10.1650   42.6489  130.6671 C   0  0  0  0  0  0  0  0  0  0  0  0
   10.9494   43.6202  130.0651 C   0  0  0  0  0  0  0  0  0  0  0  0
   10.5035   44.9246  129.9380 C   0  0  0  0  0  0  0  0  0  0  0  0
    9.2351   45.3024  130.4114 C   0  0  0  0  0  0  0  0  0  0  0  0
    8.4991   44.3118  130.9913 C   0  0  0  0  0  0  0  0  0  0  0  0
    8.9271   43.0181  131.1285 C   0  0  0  0  0  0  0  0  0  0  0  0
    9.9864   40.6448  131.2396 H   0  0  0  0  0  0  0  0  0  0  0  0
    9.7035   47.8418  132.0859 C   0  0  0  0  0  0  0  0  0  0  0  0
   10.4807   48.9136  132.1631 O   0  0  0  0  0  0  0  0  0  0  0  0
    9.8662   46.9668  133.1879 C   0  0  0  0  0  0  0  0  0  0  0  0
    9.0271   47.1722  134.2990 C   0  0  0  0  0  0  0  0  0  0  0  0
    9.0536   46.3719  135.3854 C   0  0  0  0  0  0  0  0  0  0  0  0
    9.9135   45.2886  135.4772 C   0  0  0  0  0  0  0  0  0  0  0  0
   10.7450   45.0550  134.4102 C   0  0  0  0  0  0  0  0  0  0  0  0
   10.7050   45.8909  133.3056 C   0  0  0  0  0  0  0  0  0  0  0  0
   11.6592   43.8501  134.4368 C   0  0  0  0  0  0  0  0  0  0  0  0
   11.2136   42.9137  133.5281 F   0  0  0  0  0  0  0  0  0  0  0  0
   12.9397   44.1973  134.1109 F   0  0  0  0  0  0  0  0  0  0  0  0
   11.5837   43.3122  135.7457 F   0  0  0  0  0  0  0  0  0  0  0  0
 12 13  1  0  0  0
 13 14  2  0  0  0
 14 15  1  0  0  0
 15 16  2  0  0  0
 16 17  1  0  0  0
 17 18  2  0  0  0
 16  1  1  0  0  0
  1  2  1  0  0  0
  2  3  1  0  0  0
  3  4  2  0  0  0
  4  5  1  0  0  0
  5  6  1  0  0  0
  5  7  2  0  0  0
  7  8  1  0  0  0
  8  9  2  0  0  0
  9 10  1  0  0  0
 10 20  1  0  0  0
 20 21  2  0  0  0
 20 22  1  0  0  0
 22 23  2  0  0  0
 23 24  1  0  0  0
 24 25  2  0  0  0
 25 26  1  0  0  0
 26 27  2  0  0  0
 26 28  1  0  0  0
 28 29  1  0  0  0
 28 30  1  0  0  0
 28 31  1  0  0  0
 18 13  1  0  0  0
 10  1  2  0  0  0
 27 22  1  0  0  0
  9  3  1  0  0  0
 12 19  1  0  0  0
  6 11  1  0  0  0
M  END
> <minimizedAffinity>
-6.77133

> <CNNscore>
0.5179368258

> <CNNaffinity>
7.7585434914

> <CNN_VS>
4.0184354782

> <CNNaffinity_variance>
0.5328266025

$$$$
[H]Oc1c([H])c([H])c(-c2sc3c([H])c(O[H])c([H])c([H])c3c2C(=O)c2c([H])c([H])c([H])c(C(F)(F)F)c2[H])c([H])c1[H]


 31 34  0  0  0  0  0  0  0  0999 V2000
    8.9870   47.9437  132.0505 C   0  0  0  0  0  0  0  0  0  0  0  0
   10.2486   48.9640  132.6548 S   0  0  0  0  0  0  0  0  0  0  0  0
   11.1931   47.7856  133.4097 C   0  0  0  0  0  0  0  0  0  0  0  0
   12.3982   47.8478  134.1257 C   0  0  0  0  0  0  0  0  0  0  0  0
   12.9825   46.7221  134.6472 C   0  0  0  0  0  0  0  0  0  0  0  0
   14.1723   46.6996  135.3679 O   0  0  0  0  0  0  0  0  0  0  0  0
   12.2991   45.5599  134.4097 C   0  0  0  0  0  0  0  0  0  0  0  0
   11.1447   45.4992  133.7256 C   0  0  0  0  0  0  0  0  0  0  0  0
   10.5204   46.6276  133.1826 C   0  0  0  0  0  0  0  0  0  0  0  0
    9.3636   46.6917  132.4738 C   0  0  0  0  0  0  0  0  0  0  0  0
   15.0894   46.5614  135.0136 H   0  0  0  0  0  0  0  0  0  0  0  0
    4.9573   49.9683  128.6188 O   0  0  0  0  0  0  0  0  0  0  0  0
    5.9234   49.4301  129.4570 C   0  0  0  0  0  0  0  0  0  0  0  0
    6.3118   48.1004  129.4085 C   0  0  0  0  0  0  0  0  0  0  0  0
    7.2823   47.6054  130.2628 C   0  0  0  0  0  0  0  0  0  0  0  0
    7.9092   48.4411  131.2032 C   0  0  0  0  0  0  0  0  0  0  0  0
    7.4971   49.7409  131.2098 C   0  0  0  0  0  0  0  0  0  0  0  0
    6.5359   50.2451  130.3746 C   0  0  0  0  0  0  0  0  0  0  0  0
    4.7009   50.9304  128.6629 H   0  0  0  0  0  0  0  0  0  0  0  0
    8.5612   45.5567  132.0559 C   0  0  0  0  0  0  0  0  0  0  0  0
    7.3639   45.5533  132.6262 O   0  0  0  0  0  0  0  0  0  0  0  0
    8.7582   44.4536  131.1895 C   0  0  0  0  0  0  0  0  0  0  0  0
    8.3379   43.1923  131.6515 C   0  0  0  0  0  0  0  0  0  0  0  0
    8.4261   42.0772  130.8963 C   0  0  0  0  0  0  0  0  0  0  0  0
    8.9387   42.1023  129.6087 C   0  0  0  0  0  0  0  0  0  0  0  0
    9.3559   43.3165  129.1227 C   0  0  0  0  0  0  0  0  0  0  0  0
    9.2603   44.4491  129.9156 C   0  0  0  0  0  0  0  0  0  0  0  0
    9.8670   43.4067  127.7019 C   0  0  0  0  0  0  0  0  0  0  0  0
   10.6537   42.3088  127.4249 F   0  0  0  0  0  0  0  0  0  0  0  0
    8.8336   43.4375  126.8088 F   0  0  0  0  0  0  0  0  0  0  0  0
   10.6535   44.5831  127.6273 F   0  0  0  0  0  0  0  0  0  0  0  0
 12 13  1  0  0  0
 13 14  2  0  0  0
 14 15  1  0  0  0
 15 16  2  0  0  0
 16 17  1  0  0  0
 17 18  2  0  0  0
 16  1  1  0  0  0
  1  2  1  0  0  0
  2  3  1  0  0  0
  3  4  2  0  0  0
  4  5  1  0  0  0
  5  6  1  0  0  0
  5  7  2  0  0  0
  7  8  1  0  0  0
  8  9  2  0  0  0
  9 10  1  0  0  0
 10 20  1  0  0  0
 20 21  2  0  0  0
 20 22  1  0  0  0
 22 23  2  0  0  0
 23 24  1  0  0  0
 24 25  2  0  0  0
 25 26  1  0  0  0
 26 27  2  0  0  0
 26 28  1  0  0  0
 28 29  1  0  0  0
 28 30  1  0  0  0
 28 31  1  0  0  0
 18 13  1  0  0  0
 10  1  2  0  0  0
 27 22  1  0  0  0
  9  3  1  0  0  0
 12 19  1  0  0  0
  6 11  1  0  0  0
M  END
> <minimizedAffinity>
1.93766

> <CNNscore>
0.4777450562

> <CNNaffinity>
7.7080979347

> <CNN_VS>
3.6825056076

> <CNNaffinity_variance>
2.0290369987

$$$$
[H]Oc1c([H])c([H])c(-c2sc3c([H])c(O[H])c([H])c([H])c3c2C(=O)c2c([H])c([H])c([H])c(C(F)(F)F)c2[H])c([H])c1[H]


 31 34  0  0  0  0  0  0  0  0999 V2000
    8.8229   48.1047  131.3985 C   0  0  0  0  0  0  0  0  0  0  0  0
    9.0959   49.3904  132.5255 S   0  0  0  0  0  0  0  0  0  0  0  0
   10.3718   48.7053  133.3934 C   0  0  0  0  0  0  0  0  0  0  0  0
   11.1366   49.1604  134.4781 C   0  0  0  0  0  0  0  0  0  0  0  0
   12.1463   48.4022  135.0133 C   0  0  0  0  0  0  0  0  0  0  0  0
   12.9475   48.7802  136.0860 O   0  0  0  0  0  0  0  0  0  0  0  0
   12.3357   47.1901  134.4057 C   0  0  0  0  0  0  0  0  0  0  0  0
   11.6033   46.7527  133.3681 C   0  0  0  0  0  0  0  0  0  0  0  0
   10.5650   47.4989  132.7997 C   0  0  0  0  0  0  0  0  0  0  0  0
    9.7631   47.1677  131.7548 C   0  0  0  0  0  0  0  0  0  0  0  0
   13.8213   49.2501  136.0498 H   0  0  0  0  0  0  0  0  0  0  0  0
    5.2224   48.3721  127.0306 O   0  0  0  0  0  0  0  0  0  0  0  0
    6.0689   48.2901  128.1271 C   0  0  0  0  0  0  0  0  0  0  0  0
    5.9019   47.3639  129.1447 C   0  0  0  0  0  0  0  0  0  0  0  0
    6.7722   47.3156  130.2201 C   0  0  0  0  0  0  0  0  0  0  0  0
    7.8585   48.2033  130.3090 C   0  0  0  0  0  0  0  0  0  0  0  0
    7.9837   49.0923  129.2827 C   0  0  0  0  0  0  0  0  0  0  0  0
    7.1294   49.1557  128.2142 C   0  0  0  0  0  0  0  0  0  0  0  0
    5.3673   49.0389  126.3041 H   0  0  0  0  0  0  0  0  0  0  0  0
    9.8799   45.9706  130.9424 C   0  0  0  0  0  0  0  0  0  0  0  0
   10.6939   46.1441  129.9099 O   0  0  0  0  0  0  0  0  0  0  0  0
    9.3265   44.6676  130.9906 C   0  0  0  0  0  0  0  0  0  0  0  0
    9.3857   43.9018  129.8112 C   0  0  0  0  0  0  0  0  0  0  0  0
    8.9385   42.6299  129.7494 C   0  0  0  0  0  0  0  0  0  0  0  0
    8.3894   41.9914  130.8503 C   0  0  0  0  0  0  0  0  0  0  0  0
    8.3183   42.7066  132.0200 C   0  0  0  0  0  0  0  0  0  0  0  0
    8.7795   44.0128  132.0616 C   0  0  0  0  0  0  0  0  0  0  0  0
    7.7826   42.0344  133.2647 C   0  0  0  0  0  0  0  0  0  0  0  0
    6.7188   41.2242  132.9290 F   0  0  0  0  0  0  0  0  0  0  0  0
    8.7428   41.2667  133.8606 F   0  0  0  0  0  0  0  0  0  0  0  0
    7.3366   43.0687  134.1246 F   0  0  0  0  0  0  0  0  0  0  0  0
 12 13  1  0  0  0
 13 14  2  0  0  0
 14 15  1  0  0  0
 15 16  2  0  0  0
 16 17  1  0  0  0
 17 18  2  0  0  0
 16  1  1  0  0  0
  1  2  1  0  0  0
  2  3  1  0  0  0
  3  4  2  0  0  0
  4  5  1  0  0  0
  5  6  1  0  0  0
  5  7  2  0  0  0
  7  8  1  0  0  0
  8  9  2  0  0  0
  9 10  1  0  0  0
 10 20  1  0  0  0
 20 21  2  0  0  0
 20 22  1  0  0  0
 22 23  2  0  0  0
 23 24  1  0  0  0
 24 25  2  0  0  0
 25 26  1  0  0  0
 26 27  2  0  0  0
 26 28  1  0  0  0
 28 29  1  0  0  0
 28 30  1  0  0  0
 28 31  1  0  0  0
 18 13  1  0  0  0
 10  1  2  0  0  0
 27 22  1  0  0  0
  9  3  1  0  0  0
 12 19  1  0  0  0
  6 11  1  0  0  0
M  END
> <minimizedAffinity>
8.48118

> <CNNscore>
0.4755570590

> <CNNaffinity>
7.4626359940

> <CNN_VS>
3.5489091873

> <CNNaffinity_variance>
2.1758964062

$$$$
[H]Oc1c([H])c([H])c(-c2sc3c([H])c(O[H])c([H])c([H])c3c2C(=O)c2c([H])c([H])c([H])c(C(F)(F)F)c2[H])c([H])c1[H]


 31 34  0  0  0  0  0  0  0  0999 V2000
    8.8794   47.6594  132.6570 C   0  0  0  0  0  0  0  0  0  0  0  0
    8.6361   48.0406  134.3283 S   0  0  0  0  0  0  0  0  0  0  0  0
    9.4249   46.7137  135.0123 C   0  0  0  0  0  0  0  0  0  0  0  0
    9.6506   46.3228  136.3408 C   0  0  0  0  0  0  0  0  0  0  0  0
   10.3411   45.1777  136.6450 C   0  0  0  0  0  0  0  0  0  0  0  0
   10.6054   44.7216  137.9324 O   0  0  0  0  0  0  0  0  0  0  0  0
   10.7806   44.4688  135.5594 C   0  0  0  0  0  0  0  0  0  0  0  0
   10.5640   44.8412  134.2871 C   0  0  0  0  0  0  0  0  0  0  0  0
    9.8619   46.0012  133.9416 C   0  0  0  0  0  0  0  0  0  0  0  0
    9.5847   46.4807  132.7015 C   0  0  0  0  0  0  0  0  0  0  0  0
   11.4077   44.9100  138.4861 H   0  0  0  0  0  0  0  0  0  0  0  0
    7.0888   51.1493  128.5670 O   0  0  0  0  0  0  0  0  0  0  0  0
    7.5663   50.3211  129.5728 C   0  0  0  0  0  0  0  0  0  0  0  0
    8.3982   50.7659  130.5883 C   0  0  0  0  0  0  0  0  0  0  0  0
    8.8497   49.9050  131.5740 C   0  0  0  0  0  0  0  0  0  0  0  0
    8.4712   48.5513  131.5778 C   0  0  0  0  0  0  0  0  0  0  0  0
    7.6489   48.1624  130.5619 C   0  0  0  0  0  0  0  0  0  0  0  0
    7.1969   49.0001  129.5773 C   0  0  0  0  0  0  0  0  0  0  0  0
    6.4822   50.8112  127.8522 H   0  0  0  0  0  0  0  0  0  0  0  0
   10.0457   45.9101  131.4491 C   0  0  0  0  0  0  0  0  0  0  0  0
   10.9578   46.6705  130.8585 O   0  0  0  0  0  0  0  0  0  0  0  0
    9.7473   44.7391  130.7102 C   0  0  0  0  0  0  0  0  0  0  0  0
    8.9715   43.7559  131.3523 C   0  0  0  0  0  0  0  0  0  0  0  0
    8.5804   42.6222  130.7333 C   0  0  0  0  0  0  0  0  0  0  0  0
    8.9188   42.3516  129.4167 C   0  0  0  0  0  0  0  0  0  0  0  0
    9.6726   43.2900  128.7567 C   0  0  0  0  0  0  0  0  0  0  0  0
   10.0672   44.4459  129.4115 C   0  0  0  0  0  0  0  0  0  0  0  0
   10.0169   43.0689  127.3004 C   0  0  0  0  0  0  0  0  0  0  0  0
    8.8801   43.2062  126.5324 F   0  0  0  0  0  0  0  0  0  0  0  0
   10.9438   43.9762  126.8712 F   0  0  0  0  0  0  0  0  0  0  0  0
   10.5015   41.7414  127.1949 F   0  0  0  0  0  0  0  0  0  0  0  0
 12 13  1  0  0  0
 13 14  2  0  0  0
 14 15  1  0  0  0
 15 16  2  0  0  0
 16 17  1  0  0  0
 17 18  2  0  0  0
 16  1  1  0  0  0
  1  2  1  0  0  0
  2  3  1  0  0  0
  3  4  2  0  0  0
  4  5  1  0  0  0
  5  6  1  0  0  0
  5  7  2  0  0  0
  7  8  1  0  0  0
  8  9  2  0  0  0
  9 10  1  0  0  0
 10 20  1  0  0  0
 20 21  2  0  0  0
 20 22  1  0  0  0
 22 23  2  0  0  0
 23 24  1  0  0  0
 24 25  2  0  0  0
 25 26  1  0  0  0
 26 27  2  0  0  0
 26 28  1  0  0  0
 28 29  1  0  0  0
 28 30  1  0  0  0
 28 31  1  0  0  0
 18 13  1  0  0  0
 10  1  2  0  0  0
 27 22  1  0  0  0
  9  3  1  0  0  0
 12 19  1  0  0  0
  6 11  1  0  0  0
M  END
> <minimizedAffinity>
1.66041

> <CNNscore>
0.4712815285

> <CNNaffinity>
7.6504034996

> <CNN_VS>
3.6054937840

> <CNNaffinity_variance>
1.7519690990

$$$$
[H]Oc1c([H])c([H])c(-c2sc3c([H])c(O[H])c([H])c([H])c3c2C(=O)c2c([H])c([H])c([H])c(C(F)(F)F)c2[H])c([H])c1[H]


 31 34  0  0  0  0  0  0  0  0999 V2000
    8.1882   46.6336  129.9250 C   0  0  0  0  0  0  0  0  0  0  0  0
    7.2206   47.3779  128.6972 S   0  0  0  0  0  0  0  0  0  0  0  0
    7.3637   48.9847  129.1955 C   0  0  0  0  0  0  0  0  0  0  0  0
    6.8497   50.1872  128.6873 C   0  0  0  0  0  0  0  0  0  0  0  0
    7.1213   51.3926  129.2822 C   0  0  0  0  0  0  0  0  0  0  0  0
    6.6507   52.6255  128.8420 O   0  0  0  0  0  0  0  0  0  0  0  0
    7.9219   51.3167  130.3901 C   0  0  0  0  0  0  0  0  0  0  0  0
    8.4134   50.1659  130.8784 C   0  0  0  0  0  0  0  0  0  0  0  0
    8.1543   48.9194  130.2982 C   0  0  0  0  0  0  0  0  0  0  0  0
    8.5943   47.6972  130.6948 C   0  0  0  0  0  0  0  0  0  0  0  0
    7.0983   53.2535  128.2167 H   0  0  0  0  0  0  0  0  0  0  0  0
    9.6002   41.1465  130.0307 O   0  0  0  0  0  0  0  0  0  0  0  0
    9.2134   42.4791  130.0255 C   0  0  0  0  0  0  0  0  0  0  0  0
    8.3630   43.0241  130.9746 C   0  0  0  0  0  0  0  0  0  0  0  0
    8.0045   44.3606  130.9330 C   0  0  0  0  0  0  0  0  0  0  0  0
    8.4994   45.2088  129.9273 C   0  0  0  0  0  0  0  0  0  0  0  0
    9.3353   44.6283  129.0198 C   0  0  0  0  0  0  0  0  0  0  0  0
    9.6963   43.3074  129.0446 C   0  0  0  0  0  0  0  0  0  0  0  0
   10.2220   40.7775  129.3446 H   0  0  0  0  0  0  0  0  0  0  0  0
    9.5158   47.4409  131.7865 C   0  0  0  0  0  0  0  0  0  0  0  0
    9.5204   48.4224  132.6783 O   0  0  0  0  0  0  0  0  0  0  0  0
   10.4116   46.3951  132.1185 C   0  0  0  0  0  0  0  0  0  0  0  0
   11.5102   46.1955  131.2618 C   0  0  0  0  0  0  0  0  0  0  0  0
   12.4578   45.2651  131.5025 C   0  0  0  0  0  0  0  0  0  0  0  0
   12.4104   44.4414  132.6163 C   0  0  0  0  0  0  0  0  0  0  0  0
   11.3542   44.6097  133.4770 C   0  0  0  0  0  0  0  0  0  0  0  0
   10.3897   45.5682  133.2098 C   0  0  0  0  0  0  0  0  0  0  0  0
   11.2896   43.7764  134.7378 C   0  0  0  0  0  0  0  0  0  0  0  0
   12.5502   43.3123  135.0483 F   0  0  0  0  0  0  0  0  0  0  0  0
   10.8260   44.5132  135.7907 F   0  0  0  0  0  0  0  0  0  0  0  0
   10.4379   42.6794  134.4560 F   0  0  0  0  0  0  0  0  0  0  0  0
 12 13  1  0  0  0
 13 14  2  0  0  0
 14 15  1  0  0  0
 15 16  2  0  0  0
 16 17  1  0  0  0
 17 18  2  0  0  0
 16  1  1  0  0  0
  1  2  1  0  0  0
  2  3  1  0  0  0
  3  4  2  0  0  0
  4  5  1  0  0  0
  5  6  1  0  0  0
  5  7  2  0  0  0
  7  8  1  0  0  0
  8  9  2  0  0  0
  9 10  1  0  0  0
 10 20  1  0  0  0
 20 21  2  0  0  0
 20 22  1  0  0  0
 22 23  2  0  0  0
 23 24  1  0  0  0
 24 25  2  0  0  0
 25 26  1  0  0  0
 26 27  2  0  0  0
 26 28  1  0  0  0
 28 29  1  0  0  0
 28 30  1  0  0  0
 28 31  1  0  0  0
 18 13  1  0  0  0
 10  1  2  0  0  0
 27 22  1  0  0  0
  9  3  1  0  0  0
 12 19  1  0  0  0
  6 11  1  0  0  0
M  END
> <minimizedAffinity>
-5.31159

> <CNNscore>
0.4634091556

> <CNNaffinity>
7.6715912819

> <CNN_VS>
3.5550856590

> <CNNaffinity_variance>
0.6367272139

$$$$
[H]Oc1c([H])c([H])c(-c2sc3c([H])c(O[H])c([H])c([H])c3c2C(=O)c2c([H])c([H])c([H])c(C(F)(F)F)c2[H])c([H])c1[H]


 31 34  0  0  0  0  0  0  0  0999 V2000
    8.4882   45.7283  133.1505 C   0  0  0  0  0  0  0  0  0  0  0  0
    7.1624   45.3415  134.1948 S   0  0  0  0  0  0  0  0  0  0  0  0
    7.2320   43.6581  134.0863 C   0  0  0  0  0  0  0  0  0  0  0  0
    6.4671   42.6354  134.6673 C   0  0  0  0  0  0  0  0  0  0  0  0
    6.7324   41.3124  134.4222 C   0  0  0  0  0  0  0  0  0  0  0  0
    6.0225   40.2422  134.9570 O   0  0  0  0  0  0  0  0  0  0  0  0
    7.7876   41.0868  133.5797 C   0  0  0  0  0  0  0  0  0  0  0  0
    8.5198   42.0650  133.0218 C   0  0  0  0  0  0  0  0  0  0  0  0
    8.2751   43.4239  133.2483 C   0  0  0  0  0  0  0  0  0  0  0  0
    8.9434   44.4955  132.7485 C   0  0  0  0  0  0  0  0  0  0  0  0
    6.2210   39.7442  135.7926 H   0  0  0  0  0  0  0  0  0  0  0  0
   10.1172   51.1102  132.4473 O   0  0  0  0  0  0  0  0  0  0  0  0
    9.7594   49.7836  132.6411 C   0  0  0  0  0  0  0  0  0  0  0  0
   10.2180   49.0238  133.7058 C   0  0  0  0  0  0  0  0  0  0  0  0
    9.8334   47.7032  133.8623 C   0  0  0  0  0  0  0  0  0  0  0  0
    8.9584   47.0936  132.9466 C   0  0  0  0  0  0  0  0  0  0  0  0
    8.5311   47.8821  131.9194 C   0  0  0  0  0  0  0  0  0  0  0  0
    8.9052   49.1884  131.7481 C   0  0  0  0  0  0  0  0  0  0  0  0
    9.7668   51.6419  131.6805 H   0  0  0  0  0  0  0  0  0  0  0  0
   10.1324   44.4412  131.9178 C   0  0  0  0  0  0  0  0  0  0  0  0
   11.2394   44.3123  132.6366 O   0  0  0  0  0  0  0  0  0  0  0  0
   10.3870   44.4989  130.5256 C   0  0  0  0  0  0  0  0  0  0  0  0
   10.5876   43.2755  129.8593 C   0  0  0  0  0  0  0  0  0  0  0  0
   10.7868   43.1999  128.5266 C   0  0  0  0  0  0  0  0  0  0  0  0
   10.8060   44.3291  127.7229 C   0  0  0  0  0  0  0  0  0  0  0  0
   10.6103   45.5407  128.3379 C   0  0  0  0  0  0  0  0  0  0  0  0
   10.4112   45.5971  129.7082 C   0  0  0  0  0  0  0  0  0  0  0  0
   10.5625   46.7966  127.4960 C   0  0  0  0  0  0  0  0  0  0  0  0
    9.5015   47.5801  127.8975 F   0  0  0  0  0  0  0  0  0  0  0  0
   11.7129   47.5214  127.6288 F   0  0  0  0  0  0  0  0  0  0  0  0
   10.3626   46.3798  126.1564 F   0  0  0  0  0  0  0  0  0  0  0  0
 12 13  1  0  0  0
 13 14  2  0  0  0
 14 15  1  0  0  0
 15 16  2  0  0  0
 16 17  1  0  0  0
 17 18  2  0  0  0
 16  1  1  0  0  0
  1  2  1  0  0  0
  2  3  1  0  0  0
  3  4  2  0  0  0
  4  5  1  0  0  0
  5  6  1  0  0  0
  5  7  2  0  0  0
  7  8  1  0  0  0
  8  9  2  0  0  0
  9 10  1  0  0  0
 10 20  1  0  0  0
 20 21  2  0  0  0
 20 22  1  0  0  0
 22 23  2  0  0  0
 23 24  1  0  0  0
 24 25  2  0  0  0
 25 26  1  0  0  0
 26 27  2  0  0  0
 26 28  1  0  0  0
 28 29  1  0  0  0
 28 30  1  0  0  0
 28 31  1  0  0  0
 18 13  1  0  0  0
 10  1  2  0  0  0
 27 22  1  0  0  0
  9  3  1  0  0  0
 12 19  1  0  0  0
  6 11  1  0  0  0
M  END
> <minimizedAffinity>
16.77049

> <CNNscore>
0.4627920389

> <CNNaffinity>
7.1284561157

> <CNN_VS>
3.2989926338

> <CNNaffinity_variance>
2.2544069290

$$$$
[H]Oc1c([H])c([H])c(-c2sc3c([H])c(O[H])c([H])c([H])c3c2C(=O)c2c([H])c([H])c([H])c(C(F)(F)F)c2[H])c([H])c1[H]


 31 34  0  0  0  0  0  0  0  0999 V2000
    8.8452   47.5740  131.7740 C   0  0  0  0  0  0  0  0  0  0  0  0
    9.2524   48.8899  132.8229 S   0  0  0  0  0  0  0  0  0  0  0  0
   10.5280   48.1668  133.6599 C   0  0  0  0  0  0  0  0  0  0  0  0
   11.3736   48.6221  134.6827 C   0  0  0  0  0  0  0  0  0  0  0  0
   12.3623   47.8276  135.2042 C   0  0  0  0  0  0  0  0  0  0  0  0
   13.2389   48.2032  136.2170 O   0  0  0  0  0  0  0  0  0  0  0  0
   12.4472   46.5798  134.6473 C   0  0  0  0  0  0  0  0  0  0  0  0
   11.6375   46.1423  133.6690 C   0  0  0  0  0  0  0  0  0  0  0  0
   10.6179   46.9251  133.1164 C   0  0  0  0  0  0  0  0  0  0  0  0
    9.7447   46.5975  132.1290 C   0  0  0  0  0  0  0  0  0  0  0  0
   14.1362   48.6157  136.1157 H   0  0  0  0  0  0  0  0  0  0  0  0
    5.0698   47.9220  127.5623 O   0  0  0  0  0  0  0  0  0  0  0  0
    5.9627   47.8121  128.6188 C   0  0  0  0  0  0  0  0  0  0  0  0
    5.9617   46.7446  129.5028 C   0  0  0  0  0  0  0  0  0  0  0  0
    6.8729   46.6739  130.5426 C   0  0  0  0  0  0  0  0  0  0  0  0
    7.8336   47.6829  130.7293 C   0  0  0  0  0  0  0  0  0  0  0  0
    7.7978   48.7094  129.8324 C   0  0  0  0  0  0  0  0  0  0  0  0
    6.9007   48.7962  128.8013 C   0  0  0  0  0  0  0  0  0  0  0  0
    5.0952   48.6931  126.9314 H   0  0  0  0  0  0  0  0  0  0  0  0
    9.7477   45.3599  131.3707 C   0  0  0  0  0  0  0  0  0  0  0  0
    8.8152   44.5146  131.7888 O   0  0  0  0  0  0  0  0  0  0  0  0
   10.5133   44.8432  130.2968 C   0  0  0  0  0  0  0  0  0  0  0  0
    9.8074   44.3796  129.1708 C   0  0  0  0  0  0  0  0  0  0  0  0
   10.4285   43.9138  128.0669 C   0  0  0  0  0  0  0  0  0  0  0  0
   11.8102   43.8624  127.9697 C   0  0  0  0  0  0  0  0  0  0  0  0
   12.5325   44.3097  129.0480 C   0  0  0  0  0  0  0  0  0  0  0  0
   11.8756   44.7806  130.1736 C   0  0  0  0  0  0  0  0  0  0  0  0
   14.0429   44.3300  128.9675 C   0  0  0  0  0  0  0  0  0  0  0  0
   14.4850   43.1950  128.3215 F   0  0  0  0  0  0  0  0  0  0  0  0
   14.4836   45.4231  128.2765 F   0  0  0  0  0  0  0  0  0  0  0  0
   14.5205   44.3314  130.3017 F   0  0  0  0  0  0  0  0  0  0  0  0
 12 13  1  0  0  0
 13 14  2  0  0  0
 14 15  1  0  0  0
 15 16  2  0  0  0
 16 17  1  0  0  0
 17 18  2  0  0  0
 16  1  1  0  0  0
  1  2  1  0  0  0
  2  3  1  0  0  0
  3  4  2  0  0  0
  4  5  1  0  0  0
  5  6  1  0  0  0
  5  7  2  0  0  0
  7  8  1  0  0  0
  8  9  2  0  0  0
  9 10  1  0  0  0
 10 20  1  0  0  0
 20 21  2  0  0  0
 20 22  1  0  0  0
 22 23  2  0  0  0
 23 24  1  0  0  0
 24 25  2  0  0  0
 25 26  1  0  0  0
 26 27  2  0  0  0
 26 28  1  0  0  0
 28 29  1  0  0  0
 28 30  1  0  0  0
 28 31  1  0  0  0
 18 13  1  0  0  0
 10  1  2  0  0  0
 27 22  1  0  0  0
  9  3  1  0  0  0
 12 19  1  0  0  0
  6 11  1  0  0  0
M  END
> <minimizedAffinity>
5.95816

> <CNNscore>
0.4499236941

> <CNNaffinity>
7.2014245987

> <CNN_VS>
3.2400915623

> <CNNaffinity_variance>
1.2993810177

$$$$
