[H]c1c([H])c([H])c(-c2c([H])c([H])c([H])c(-c3c([H])c([H])c([H])c([H])c3N([H])S(=O)(=O)c3c([H])c([H])c(OC([H])([H])[H])c([H])c3[H])c2[H])c([H])c1[H]


 31 34  0  0  0  0  0  0  0  0999 V2000
   10.6480   48.0236  131.4057 C   0  0  0  0  0  0  0  0  0  0  0  0
   10.5007   49.3605  131.0993 C   0  0  0  0  0  0  0  0  0  0  0  0
   10.1152   50.2994  132.0295 C   0  0  0  0  0  0  0  0  0  0  0  0
    9.8614   49.9150  133.3230 C   0  0  0  0  0  0  0  0  0  0  0  0
   10.0026   48.6094  133.6362 C   0  0  0  0  0  0  0  0  0  0  0  0
   10.3949   47.6321  132.7049 C   0  0  0  0  0  0  0  0  0  0  0  0
   10.5430   46.2543  133.1188 C   0  0  0  0  0  0  0  0  0  0  0  0
   11.6637   45.8731  133.8097 C   0  0  0  0  0  0  0  0  0  0  0  0
   11.8554   44.5401  134.2032 C   0  0  0  0  0  0  0  0  0  0  0  0
   10.8856   43.6147  133.8779 C   0  0  0  0  0  0  0  0  0  0  0  0
    9.7495   43.9814  133.1813 C   0  0  0  0  0  0  0  0  0  0  0  0
    9.5939   45.3241  132.8048 C   0  0  0  0  0  0  0  0  0  0  0  0
    8.7249   43.0110  132.8366 C   0  0  0  0  0  0  0  0  0  0  0  0
    8.3975   42.7473  131.5283 C   0  0  0  0  0  0  0  0  0  0  0  0
    7.4218   41.8224  131.2334 C   0  0  0  0  0  0  0  0  0  0  0  0
    6.7471   41.1364  132.2371 C   0  0  0  0  0  0  0  0  0  0  0  0
    7.0718   41.3975  133.5493 C   0  0  0  0  0  0  0  0  0  0  0  0
    8.0576   42.3319  133.8473 C   0  0  0  0  0  0  0  0  0  0  0  0
   11.0501   47.1248  130.3739 N   0  0  0  0  0  0  0  0  0  0  0  0
   12.0742   46.9674  130.2726 H   0  0  0  0  0  0  0  0  0  0  0  0
    9.9992   46.3186  129.3033 S   0  0  0  0  0  0  0  0  0  0  0  0
   10.6019   46.3852  127.9080 O   0  0  0  0  0  0  0  0  0  0  0  0
    9.8899   44.8563  129.7003 O   0  0  0  0  0  0  0  0  0  0  0  0
    5.7555   47.9007  129.2150 C   0  0  0  0  0  0  0  0  0  0  0  0
    6.7727   48.6194  128.6240 C   0  0  0  0  0  0  0  0  0  0  0  0
    8.0752   48.1324  128.6519 C   0  0  0  0  0  0  0  0  0  0  0  0
    8.3792   46.9353  129.2625 C   0  0  0  0  0  0  0  0  0  0  0  0
    7.3551   46.2302  129.8473 C   0  0  0  0  0  0  0  0  0  0  0  0
    6.0432   46.6854  129.8388 C   0  0  0  0  0  0  0  0  0  0  0  0
    4.2559   49.7743  129.3060 C   0  0  0  0  0  0  0  0  0  0  0  0
    4.4600   48.3836  129.1880 O   0  0  0  0  0  0  0  0  0  0  0  0
 30 31  1  0  0  0
 31 24  1  0  0  0
 24 25  2  0  0  0
 25 26  1  0  0  0
 26 27  2  0  0  0
 27 28  1  0  0  0
 28 29  2  0  0  0
 27 21  1  0  0  0
 21 22  2  0  0  0
 21 23  2  0  0  0
 21 19  1  0  0  0
 19  1  1  0  0  0
  1  2  2  0  0  0
  2  3  1  0  0  0
  3  4  2  0  0  0
  4  5  1  0  0  0
  5  6  2  0  0  0
  6  7  1  0  0  0
  7  8  2  0  0  0
  8  9  1  0  0  0
  9 10  2  0  0  0
 10 11  1  0  0  0
 11 12  2  0  0  0
 11 13  1  0  0  0
 13 14  2  0  0  0
 14 15  1  0  0  0
 15 16  2  0  0  0
 16 17  1  0  0  0
 17 18  2  0  0  0
 29 24  1  0  0  0
  6  1  1  0  0  0
 12  7  1  0  0  0
 18 13  1  0  0  0
 19 20  1  0  0  0
M  END
> <minimizedAffinity>
3.77662

> <CNNscore>
0.5470183492

> <CNNaffinity>
7.4625916481

> <CNN_VS>
4.0821747780

> <CNNaffinity_variance>
0.6520082355

$$$$
[H]c1c([H])c([H])c(-c2c([H])c([H])c([H])c(-c3c([H])c([H])c([H])c([H])c3N([H])S(=O)(=O)c3c([H])c([H])c(OC([H])([H])[H])c([H])c3[H])c2[H])c([H])c1[H]


 31 34  0  0  0  0  0  0  0  0999 V2000
    8.7939   43.8490  130.6670 C   0  0  0  0  0  0  0  0  0  0  0  0
    8.5597   42.7566  129.8578 C   0  0  0  0  0  0  0  0  0  0  0  0
    8.0502   41.5707  130.3369 C   0  0  0  0  0  0  0  0  0  0  0  0
    7.7541   41.4445  131.6718 C   0  0  0  0  0  0  0  0  0  0  0  0
    7.9779   42.5066  132.4745 C   0  0  0  0  0  0  0  0  0  0  0  0
    8.4970   43.7276  132.0095 C   0  0  0  0  0  0  0  0  0  0  0  0
    8.6926   44.8284  132.9268 C   0  0  0  0  0  0  0  0  0  0  0  0
    7.6045   45.5100  133.4063 C   0  0  0  0  0  0  0  0  0  0  0  0
    7.7565   46.6008  134.2755 C   0  0  0  0  0  0  0  0  0  0  0  0
    9.0330   46.9757  134.6398 C   0  0  0  0  0  0  0  0  0  0  0  0
   10.1416   46.3000  134.1655 C   0  0  0  0  0  0  0  0  0  0  0  0
    9.9489   45.2144  133.2978 C   0  0  0  0  0  0  0  0  0  0  0  0
   11.4881   46.6902  134.5465 C   0  0  0  0  0  0  0  0  0  0  0  0
   11.7321   47.8646  135.2170 C   0  0  0  0  0  0  0  0  0  0  0  0
   13.0192   48.2071  135.5641 C   0  0  0  0  0  0  0  0  0  0  0  0
   14.0967   47.3861  135.2508 C   0  0  0  0  0  0  0  0  0  0  0  0
   13.8568   46.2085  134.5790 C   0  0  0  0  0  0  0  0  0  0  0  0
   12.5564   45.8624  134.2283 C   0  0  0  0  0  0  0  0  0  0  0  0
    9.3254   45.0349  130.0795 N   0  0  0  0  0  0  0  0  0  0  0  0
   10.3291   45.0035  129.8049 H   0  0  0  0  0  0  0  0  0  0  0  0
    8.4602   46.4778  129.8150 S   0  0  0  0  0  0  0  0  0  0  0  0
    8.5887   46.8442  128.3440 O   0  0  0  0  0  0  0  0  0  0  0  0
    6.9887   46.2531  130.1181 O   0  0  0  0  0  0  0  0  0  0  0  0
    9.7986   49.9751  132.3639 C   0  0  0  0  0  0  0  0  0  0  0  0
    8.4832   49.8761  131.9636 C   0  0  0  0  0  0  0  0  0  0  0  0
    8.0737   48.8018  131.1810 C   0  0  0  0  0  0  0  0  0  0  0  0
    8.9596   47.8215  130.7904 C   0  0  0  0  0  0  0  0  0  0  0  0
   10.2673   47.9337  131.1970 C   0  0  0  0  0  0  0  0  0  0  0  0
   10.7117   48.9920  131.9784 C   0  0  0  0  0  0  0  0  0  0  0  0
    9.2238   51.8840  133.7029 C   0  0  0  0  0  0  0  0  0  0  0  0
   10.2073   51.0428  133.1420 O   0  0  0  0  0  0  0  0  0  0  0  0
 30 31  1  0  0  0
 31 24  1  0  0  0
 24 25  2  0  0  0
 25 26  1  0  0  0
 26 27  2  0  0  0
 27 28  1  0  0  0
 28 29  2  0  0  0
 27 21  1  0  0  0
 21 22  2  0  0  0
 21 23  2  0  0  0
 21 19  1  0  0  0
 19  1  1  0  0  0
  1  2  2  0  0  0
  2  3  1  0  0  0
  3  4  2  0  0  0
  4  5  1  0  0  0
  5  6  2  0  0  0
  6  7  1  0  0  0
  7  8  2  0  0  0
  8  9  1  0  0  0
  9 10  2  0  0  0
 10 11  1  0  0  0
 11 12  2  0  0  0
 11 13  1  0  0  0
 13 14  2  0  0  0
 14 15  1  0  0  0
 15 16  2  0  0  0
 16 17  1  0  0  0
 17 18  2  0  0  0
 29 24  1  0  0  0
  6  1  1  0  0  0
 12  7  1  0  0  0
 18 13  1  0  0  0
 19 20  1  0  0  0
M  END
> <minimizedAffinity>
13.33931

> <CNNscore>
0.5170255899

> <CNNaffinity>
7.4779281616

> <CNN_VS>
3.8662803173

> <CNNaffinity_variance>
1.6006405354

$$$$
[H]c1c([H])c([H])c(-c2c([H])c([H])c([H])c(-c3c([H])c([H])c([H])c([H])c3N([H])S(=O)(=O)c3c([H])c([H])c(OC([H])([H])[H])c([H])c3[H])c2[H])c([H])c1[H]


 31 34  0  0  0  0  0  0  0  0999 V2000
    9.8739   49.0787  131.3056 C   0  0  0  0  0  0  0  0  0  0  0  0
    9.5525   50.3880  131.5978 C   0  0  0  0  0  0  0  0  0  0  0  0
    9.6265   50.9064  132.8711 C   0  0  0  0  0  0  0  0  0  0  0  0
   10.0347   50.1078  133.9108 C   0  0  0  0  0  0  0  0  0  0  0  0
   10.3530   48.8245  133.6381 C   0  0  0  0  0  0  0  0  0  0  0  0
   10.2858   48.2720  132.3472 C   0  0  0  0  0  0  0  0  0  0  0  0
   10.6607   46.8924  132.1286 C   0  0  0  0  0  0  0  0  0  0  0  0
   11.9298   46.5962  131.7041 C   0  0  0  0  0  0  0  0  0  0  0  0
   12.3212   45.2722  131.4545 C   0  0  0  0  0  0  0  0  0  0  0  0
   11.3956   44.2678  131.6467 C   0  0  0  0  0  0  0  0  0  0  0  0
   10.1113   44.5483  132.0741 C   0  0  0  0  0  0  0  0  0  0  0  0
    9.7575   45.8849  132.3127 C   0  0  0  0  0  0  0  0  0  0  0  0
    9.1328   43.4943  132.2786 C   0  0  0  0  0  0  0  0  0  0  0  0
    8.3962   42.9869  131.2354 C   0  0  0  0  0  0  0  0  0  0  0  0
    7.4761   41.9884  131.4609 C   0  0  0  0  0  0  0  0  0  0  0  0
    7.2671   41.4702  132.7341 C   0  0  0  0  0  0  0  0  0  0  0  0
    8.0028   41.9757  133.7823 C   0  0  0  0  0  0  0  0  0  0  0  0
    8.9325   42.9845  133.5545 C   0  0  0  0  0  0  0  0  0  0  0  0
    9.7647   48.6317  129.9557 N   0  0  0  0  0  0  0  0  0  0  0  0
   10.4970   48.9696  129.2973 H   0  0  0  0  0  0  0  0  0  0  0  0
    8.5375   47.6189  129.3483 S   0  0  0  0  0  0  0  0  0  0  0  0
    7.4563   47.4949  130.4115 O   0  0  0  0  0  0  0  0  0  0  0  0
    7.9161   48.2532  128.1158 O   0  0  0  0  0  0  0  0  0  0  0  0
    9.8744   43.4723  128.1081 C   0  0  0  0  0  0  0  0  0  0  0  0
   10.7663   44.5230  128.0781 C   0  0  0  0  0  0  0  0  0  0  0  0
   10.3544   45.7956  128.4591 C   0  0  0  0  0  0  0  0  0  0  0  0
    9.0620   46.0367  128.8710 C   0  0  0  0  0  0  0  0  0  0  0  0
    8.1843   44.9797  128.8957 C   0  0  0  0  0  0  0  0  0  0  0  0
    8.5602   43.6961  128.5225 C   0  0  0  0  0  0  0  0  0  0  0  0
    9.9887   41.1204  128.5804 C   0  0  0  0  0  0  0  0  0  0  0  0
   10.2824   42.2064  127.7295 O   0  0  0  0  0  0  0  0  0  0  0  0
 30 31  1  0  0  0
 31 24  1  0  0  0
 24 25  2  0  0  0
 25 26  1  0  0  0
 26 27  2  0  0  0
 27 28  1  0  0  0
 28 29  2  0  0  0
 27 21  1  0  0  0
 21 22  2  0  0  0
 21 23  2  0  0  0
 21 19  1  0  0  0
 19  1  1  0  0  0
  1  2  2  0  0  0
  2  3  1  0  0  0
  3  4  2  0  0  0
  4  5  1  0  0  0
  5  6  2  0  0  0
  6  7  1  0  0  0
  7  8  2  0  0  0
  8  9  1  0  0  0
  9 10  2  0  0  0
 10 11  1  0  0  0
 11 12  2  0  0  0
 11 13  1  0  0  0
 13 14  2  0  0  0
 14 15  1  0  0  0
 15 16  2  0  0  0
 16 17  1  0  0  0
 17 18  2  0  0  0
 29 24  1  0  0  0
  6  1  1  0  0  0
 12  7  1  0  0  0
 18 13  1  0  0  0
 19 20  1  0  0  0
M  END
> <minimizedAffinity>
4.48666

> <CNNscore>
0.4950249493

> <CNNaffinity>
7.3542680740

> <CNN_VS>
3.6405460835

> <CNNaffinity_variance>
1.0901628733

$$$$
[H]c1c([H])c([H])c(-c2c([H])c([H])c([H])c(-c3c([H])c([H])c([H])c([H])c3N([H])S(=O)(=O)c3c([H])c([H])c(OC([H])([H])[H])c([H])c3[H])c2[H])c([H])c1[H]


 31 34  0  0  0  0  0  0  0  0999 V2000
   10.1176   44.7489  129.5452 C   0  0  0  0  0  0  0  0  0  0  0  0
    9.8518   44.6268  128.1971 C   0  0  0  0  0  0  0  0  0  0  0  0
    9.6515   43.4100  127.5849 C   0  0  0  0  0  0  0  0  0  0  0  0
    9.7130   42.2550  128.3249 C   0  0  0  0  0  0  0  0  0  0  0  0
    9.9716   42.3607  129.6458 C   0  0  0  0  0  0  0  0  0  0  0  0
   10.1795   43.5909  130.2937 C   0  0  0  0  0  0  0  0  0  0  0  0
   10.4337   43.6266  131.7170 C   0  0  0  0  0  0  0  0  0  0  0  0
   10.1342   42.5313  132.4846 C   0  0  0  0  0  0  0  0  0  0  0  0
   10.3406   42.5392  133.8724 C   0  0  0  0  0  0  0  0  0  0  0  0
   10.8547   43.6803  134.4521 C   0  0  0  0  0  0  0  0  0  0  0  0
   11.1621   44.7941  133.6934 C   0  0  0  0  0  0  0  0  0  0  0  0
   10.9412   44.7479  132.3086 C   0  0  0  0  0  0  0  0  0  0  0  0
   11.7042   45.9981  134.2988 C   0  0  0  0  0  0  0  0  0  0  0  0
   13.0370   46.1039  134.6167 C   0  0  0  0  0  0  0  0  0  0  0  0
   13.5208   47.2578  135.1900 C   0  0  0  0  0  0  0  0  0  0  0  0
   12.6868   48.3368  135.4609 C   0  0  0  0  0  0  0  0  0  0  0  0
   11.3509   48.2353  135.1440 C   0  0  0  0  0  0  0  0  0  0  0  0
   10.8618   47.0694  134.5649 C   0  0  0  0  0  0  0  0  0  0  0  0
   10.3126   46.0527  130.0893 N   0  0  0  0  0  0  0  0  0  0  0  0
   10.6815   46.0961  131.0619 H   0  0  0  0  0  0  0  0  0  0  0  0
    9.9761   47.5168  129.2869 S   0  0  0  0  0  0  0  0  0  0  0  0
   10.8603   48.5998  129.8868 O   0  0  0  0  0  0  0  0  0  0  0  0
   10.3266   47.3839  127.8148 O   0  0  0  0  0  0  0  0  0  0  0  0
    5.6367   48.8069  129.4446 C   0  0  0  0  0  0  0  0  0  0  0  0
    6.6393   49.7296  129.6539 C   0  0  0  0  0  0  0  0  0  0  0  0
    7.9712   49.3320  129.6052 C   0  0  0  0  0  0  0  0  0  0  0  0
    8.3192   48.0236  129.3501 C   0  0  0  0  0  0  0  0  0  0  0  0
    7.3091   47.1152  129.1435 C   0  0  0  0  0  0  0  0  0  0  0  0
    5.9688   47.4761  129.1846 C   0  0  0  0  0  0  0  0  0  0  0  0
    3.9726   50.4854  129.0197 C   0  0  0  0  0  0  0  0  0  0  0  0
    4.3120   49.2006  129.4927 O   0  0  0  0  0  0  0  0  0  0  0  0
 30 31  1  0  0  0
 31 24  1  0  0  0
 24 25  2  0  0  0
 25 26  1  0  0  0
 26 27  2  0  0  0
 27 28  1  0  0  0
 28 29  2  0  0  0
 27 21  1  0  0  0
 21 22  2  0  0  0
 21 23  2  0  0  0
 21 19  1  0  0  0
 19  1  1  0  0  0
  1  2  2  0  0  0
  2  3  1  0  0  0
  3  4  2  0  0  0
  4  5  1  0  0  0
  5  6  2  0  0  0
  6  7  1  0  0  0
  7  8  2  0  0  0
  8  9  1  0  0  0
  9 10  2  0  0  0
 10 11  1  0  0  0
 11 12  2  0  0  0
 11 13  1  0  0  0
 13 14  2  0  0  0
 14 15  1  0  0  0
 15 16  2  0  0  0
 16 17  1  0  0  0
 17 18  2  0  0  0
 29 24  1  0  0  0
  6  1  1  0  0  0
 12  7  1  0  0  0
 18 13  1  0  0  0
 19 20  1  0  0  0
M  END
> <minimizedAffinity>
9.03184

> <CNNscore>
0.4800479710

> <CNNaffinity>
7.6720719337

> <CNN_VS>
3.6829626560

> <CNNaffinity_variance>
1.9596408606

$$$$
[H]c1c([H])c([H])c(-c2c([H])c([H])c([H])c(-c3c([H])c([H])c([H])c([H])c3N([H])S(=O)(=O)c3c([H])c([H])c(OC([H])([H])[H])c([H])c3[H])c2[H])c([H])c1[H]


 31 34  0  0  0  0  0  0  0  0999 V2000
    9.9208   43.1852  131.1272 C   0  0  0  0  0  0  0  0  0  0  0  0
    9.7714   42.1481  130.2300 C   0  0  0  0  0  0  0  0  0  0  0  0
    8.6132   41.4104  130.1308 C   0  0  0  0  0  0  0  0  0  0  0  0
    7.5477   41.6993  130.9472 C   0  0  0  0  0  0  0  0  0  0  0  0
    7.6806   42.7126  131.8293 C   0  0  0  0  0  0  0  0  0  0  0  0
    8.8522   43.4802  131.9496 C   0  0  0  0  0  0  0  0  0  0  0  0
    8.9143   44.5633  132.9060 C   0  0  0  0  0  0  0  0  0  0  0  0
    7.7521   45.0947  133.4014 C   0  0  0  0  0  0  0  0  0  0  0  0
    7.7721   46.1644  134.3090 C   0  0  0  0  0  0  0  0  0  0  0  0
    8.9945   46.6737  134.6951 C   0  0  0  0  0  0  0  0  0  0  0  0
   10.1763   46.1503  134.2053 C   0  0  0  0  0  0  0  0  0  0  0  0
   10.1153   45.0809  133.2990 C   0  0  0  0  0  0  0  0  0  0  0  0
   11.4664   46.6824  134.6090 C   0  0  0  0  0  0  0  0  0  0  0  0
   11.5822   47.9269  135.1803 C   0  0  0  0  0  0  0  0  0  0  0  0
   12.8187   48.4038  135.5519 C   0  0  0  0  0  0  0  0  0  0  0  0
   13.9722   47.6508  135.3631 C   0  0  0  0  0  0  0  0  0  0  0  0
   13.8608   46.4035  134.7910 C   0  0  0  0  0  0  0  0  0  0  0  0
   12.6115   45.9215  134.4154 C   0  0  0  0  0  0  0  0  0  0  0  0
   11.1597   43.8912  131.1577 N   0  0  0  0  0  0  0  0  0  0  0  0
   11.9197   43.4646  131.7272 H   0  0  0  0  0  0  0  0  0  0  0  0
   11.4764   45.3624  130.3604 S   0  0  0  0  0  0  0  0  0  0  0  0
   12.5878   46.0791  131.1125 O   0  0  0  0  0  0  0  0  0  0  0  0
   11.9660   45.0830  128.9497 O   0  0  0  0  0  0  0  0  0  0  0  0
    7.8937   48.1001  129.9260 C   0  0  0  0  0  0  0  0  0  0  0  0
    8.9639   48.4821  130.7064 C   0  0  0  0  0  0  0  0  0  0  0  0
   10.0632   47.6405  130.8389 C   0  0  0  0  0  0  0  0  0  0  0  0
   10.1112   46.4195  130.2025 C   0  0  0  0  0  0  0  0  0  0  0  0
    9.0372   46.0523  129.4281 C   0  0  0  0  0  0  0  0  0  0  0  0
    7.9231   46.8666  129.2729 C   0  0  0  0  0  0  0  0  0  0  0  0
    6.8970   50.2562  130.2800 C   0  0  0  0  0  0  0  0  0  0  0  0
    6.7999   48.9358  129.7933 O   0  0  0  0  0  0  0  0  0  0  0  0
 30 31  1  0  0  0
 31 24  1  0  0  0
 24 25  2  0  0  0
 25 26  1  0  0  0
 26 27  2  0  0  0
 27 28  1  0  0  0
 28 29  2  0  0  0
 27 21  1  0  0  0
 21 22  2  0  0  0
 21 23  2  0  0  0
 21 19  1  0  0  0
 19  1  1  0  0  0
  1  2  2  0  0  0
  2  3  1  0  0  0
  3  4  2  0  0  0
  4  5  1  0  0  0
  5  6  2  0  0  0
  6  7  1  0  0  0
  7  8  2  0  0  0
  8  9  1  0  0  0
  9 10  2  0  0  0
 10 11  1  0  0  0
 11 12  2  0  0  0
 11 13  1  0  0  0
 13 14  2  0  0  0
 14 15  1  0  0  0
 15 16  2  0  0  0
 16 17  1  0  0  0
 17 18  2  0  0  0
 29 24  1  0  0  0
  6  1  1  0  0  0
 12  7  1  0  0  0
 18 13  1  0  0  0
 19 20  1  0  0  0
M  END
> <minimizedAffinity>
7.19377

> <CNNscore>
0.4632363021

> <CNNaffinity>
7.4884138107

> <CNN_VS>
3.4689052105

> <CNNaffinity_variance>
0.6946032643

$$$$
[H]c1c([H])c([H])c(-c2c([H])c([H])c([H])c(-c3c([H])c([H])c([H])c([H])c3N([H])S(=O)(=O)c3c([H])c([H])c(OC([H])([H])[H])c([H])c3[H])c2[H])c([H])c1[H]


 31 34  0  0  0  0  0  0  0  0999 V2000
    8.5046   43.5836  130.1729 C   0  0  0  0  0  0  0  0  0  0  0  0
    9.1695   42.4061  129.9003 C   0  0  0  0  0  0  0  0  0  0  0  0
    9.9959   42.2531  128.8097 C   0  0  0  0  0  0  0  0  0  0  0  0
   10.1831   43.3010  127.9425 C   0  0  0  0  0  0  0  0  0  0  0  0
    9.5387   44.4594  128.1985 C   0  0  0  0  0  0  0  0  0  0  0  0
    8.6903   44.6404  129.3047 C   0  0  0  0  0  0  0  0  0  0  0  0
    8.0479   45.9174  129.5243 C   0  0  0  0  0  0  0  0  0  0  0  0
    6.8646   46.1963  128.8912 C   0  0  0  0  0  0  0  0  0  0  0  0
    6.2267   47.4348  129.0577 C   0  0  0  0  0  0  0  0  0  0  0  0
    6.8194   48.3724  129.8775 C   0  0  0  0  0  0  0  0  0  0  0  0
    8.0126   48.1084  130.5234 C   0  0  0  0  0  0  0  0  0  0  0  0
    8.6204   46.8584  130.3316 C   0  0  0  0  0  0  0  0  0  0  0  0
    8.6408   49.0920  131.3883 C   0  0  0  0  0  0  0  0  0  0  0  0
    9.4114   48.7155  132.4619 C   0  0  0  0  0  0  0  0  0  0  0  0
    9.9934   49.6713  133.2634 C   0  0  0  0  0  0  0  0  0  0  0  0
    9.8212   51.0282  133.0141 C   0  0  0  0  0  0  0  0  0  0  0  0
    9.0499   51.4100  131.9394 C   0  0  0  0  0  0  0  0  0  0  0  0
    8.4618   50.4445  131.1296 C   0  0  0  0  0  0  0  0  0  0  0  0
    7.6683   43.6464  131.3265 N   0  0  0  0  0  0  0  0  0  0  0  0
    6.6427   43.6812  131.1513 H   0  0  0  0  0  0  0  0  0  0  0  0
    8.2140   43.6855  132.9394 S   0  0  0  0  0  0  0  0  0  0  0  0
    7.2065   44.4757  133.7612 O   0  0  0  0  0  0  0  0  0  0  0  0
    8.2695   42.2722  133.4936 O   0  0  0  0  0  0  0  0  0  0  0  0
   12.3598   45.4129  133.5293 C   0  0  0  0  0  0  0  0  0  0  0  0
   11.3108   46.2380  133.1838 C   0  0  0  0  0  0  0  0  0  0  0  0
   10.0385   45.7063  133.0030 C   0  0  0  0  0  0  0  0  0  0  0  0
    9.7959   44.3594  133.1621 C   0  0  0  0  0  0  0  0  0  0  0  0
   10.8512   43.5494  133.5065 C   0  0  0  0  0  0  0  0  0  0  0  0
   12.1345   44.0453  133.6951 C   0  0  0  0  0  0  0  0  0  0  0  0
   14.2351   45.8135  134.9750 C   0  0  0  0  0  0  0  0  0  0  0  0
   13.6254   45.9402  133.7094 O   0  0  0  0  0  0  0  0  0  0  0  0
 30 31  1  0  0  0
 31 24  1  0  0  0
 24 25  2  0  0  0
 25 26  1  0  0  0
 26 27  2  0  0  0
 27 28  1  0  0  0
 28 29  2  0  0  0
 27 21  1  0  0  0
 21 22  2  0  0  0
 21 23  2  0  0  0
 21 19  1  0  0  0
 19  1  1  0  0  0
  1  2  2  0  0  0
  2  3  1  0  0  0
  3  4  2  0  0  0
  4  5  1  0  0  0
  5  6  2  0  0  0
  6  7  1  0  0  0
  7  8  2  0  0  0
  8  9  1  0  0  0
  9 10  2  0  0  0
 10 11  1  0  0  0
 11 12  2  0  0  0
 11 13  1  0  0  0
 13 14  2  0  0  0
 14 15  1  0  0  0
 15 16  2  0  0  0
 16 17  1  0  0  0
 17 18  2  0  0  0
 29 24  1  0  0  0
  6  1  1  0  0  0
 12  7  1  0  0  0
 18 13  1  0  0  0
 19 20  1  0  0  0
M  END
> <minimizedAffinity>
3.40887

> <CNNscore>
0.4558378458

> <CNNaffinity>
7.4300994873

> <CNN_VS>
3.3869204521

> <CNNaffinity_variance>
0.8165866733

$$$$
[H]c1c([H])c([H])c(-c2c([H])c([H])c([H])c(-c3c([H])c([H])c([H])c([H])c3N([H])S(=O)(=O)c3c([H])c([H])c(OC([H])([H])[H])c([H])c3[H])c2[H])c([H])c1[H]


 31 34  0  0  0  0  0  0  0  0999 V2000
   12.0379   45.4071  130.7678 C   0  0  0  0  0  0  0  0  0  0  0  0
   12.6714   44.3592  130.1325 C   0  0  0  0  0  0  0  0  0  0  0  0
   12.3129   43.9239  128.8765 C   0  0  0  0  0  0  0  0  0  0  0  0
   11.2858   44.5420  128.2069 C   0  0  0  0  0  0  0  0  0  0  0  0
   10.6580   45.5696  128.8174 C   0  0  0  0  0  0  0  0  0  0  0  0
   11.0053   46.0324  130.0986 C   0  0  0  0  0  0  0  0  0  0  0  0
   10.2988   47.1518  130.6812 C   0  0  0  0  0  0  0  0  0  0  0  0
   10.8470   47.8159  131.7474 C   0  0  0  0  0  0  0  0  0  0  0  0
   10.1779   48.8882  132.3565 C   0  0  0  0  0  0  0  0  0  0  0  0
    8.9482   49.2627  131.8564 C   0  0  0  0  0  0  0  0  0  0  0  0
    8.3803   48.6039  130.7821 C   0  0  0  0  0  0  0  0  0  0  0  0
    9.0799   47.5360  130.2000 C   0  0  0  0  0  0  0  0  0  0  0  0
    7.0858   48.9945  130.2511 C   0  0  0  0  0  0  0  0  0  0  0  0
    6.5559   50.2388  130.4950 C   0  0  0  0  0  0  0  0  0  0  0  0
    5.3266   50.5794  129.9782 C   0  0  0  0  0  0  0  0  0  0  0  0
    4.5937   49.6867  129.2042 C   0  0  0  0  0  0  0  0  0  0  0  0
    5.1207   48.4389  128.9573 C   0  0  0  0  0  0  0  0  0  0  0  0
    6.3628   48.0947  129.4794 C   0  0  0  0  0  0  0  0  0  0  0  0
   12.4790   45.7855  132.0703 N   0  0  0  0  0  0  0  0  0  0  0  0
   13.2657   46.4661  132.1111 H   0  0  0  0  0  0  0  0  0  0  0  0
   11.8373   45.2036  133.5366 S   0  0  0  0  0  0  0  0  0  0  0  0
   12.9296   44.4267  134.2565 O   0  0  0  0  0  0  0  0  0  0  0  0
   11.4332   46.3740  134.4167 O   0  0  0  0  0  0  0  0  0  0  0  0
    8.1370   42.6243  133.1193 C   0  0  0  0  0  0  0  0  0  0  0  0
    9.3880   42.0458  133.0953 C   0  0  0  0  0  0  0  0  0  0  0  0
   10.5233   42.8390  133.2235 C   0  0  0  0  0  0  0  0  0  0  0  0
   10.4290   44.2051  133.3758 C   0  0  0  0  0  0  0  0  0  0  0  0
    9.1755   44.7674  133.3978 C   0  0  0  0  0  0  0  0  0  0  0  0
    8.0204   44.0070  133.2726 C   0  0  0  0  0  0  0  0  0  0  0  0
    6.5148   41.1739  134.1353 C   0  0  0  0  0  0  0  0  0  0  0  0
    7.0073   41.8370  132.9919 O   0  0  0  0  0  0  0  0  0  0  0  0
 30 31  1  0  0  0
 31 24  1  0  0  0
 24 25  2  0  0  0
 25 26  1  0  0  0
 26 27  2  0  0  0
 27 28  1  0  0  0
 28 29  2  0  0  0
 27 21  1  0  0  0
 21 22  2  0  0  0
 21 23  2  0  0  0
 21 19  1  0  0  0
 19  1  1  0  0  0
  1  2  2  0  0  0
  2  3  1  0  0  0
  3  4  2  0  0  0
  4  5  1  0  0  0
  5  6  2  0  0  0
  6  7  1  0  0  0
  7  8  2  0  0  0
  8  9  1  0  0  0
  9 10  2  0  0  0
 10 11  1  0  0  0
 11 12  2  0  0  0
 11 13  1  0  0  0
 13 14  2  0  0  0
 14 15  1  0  0  0
 15 16  2  0  0  0
 16 17  1  0  0  0
 17 18  2  0  0  0
 29 24  1  0  0  0
  6  1  1  0  0  0
 12  7  1  0  0  0
 18 13  1  0  0  0
 19 20  1  0  0  0
M  END
> <minimizedAffinity>
-1.14333

> <CNNscore>
0.4266867638

> <CNNaffinity>
7.5268287659

> <CNN_VS>
3.2115981579

> <CNNaffinity_variance>
0.6615288854

$$$$
[H]c1c([H])c([H])c(-c2c([H])c([H])c([H])c(-c3c([H])c([H])c([H])c([H])c3N([H])S(=O)(=O)c3c([H])c([H])c(OC([H])([H])[H])c([H])c3[H])c2[H])c([H])c1[H]


 31 34  0  0  0  0  0  0  0  0999 V2000
   10.0750   43.0261  129.5904 C   0  0  0  0  0  0  0  0  0  0  0  0
    9.7177   42.2608  128.4997 C   0  0  0  0  0  0  0  0  0  0  0  0
   10.0365   42.6120  127.2072 C   0  0  0  0  0  0  0  0  0  0  0  0
   10.7393   43.7669  126.9670 C   0  0  0  0  0  0  0  0  0  0  0  0
   11.0958   44.5245  128.0261 C   0  0  0  0  0  0  0  0  0  0  0  0
   10.7824   44.1875  129.3544 C   0  0  0  0  0  0  0  0  0  0  0  0
   11.2145   45.0400  130.4398 C   0  0  0  0  0  0  0  0  0  0  0  0
   12.2204   44.6191  131.2703 C   0  0  0  0  0  0  0  0  0  0  0  0
   12.6470   45.4063  132.3505 C   0  0  0  0  0  0  0  0  0  0  0  0
   12.0285   46.6212  132.5608 C   0  0  0  0  0  0  0  0  0  0  0  0
   11.0123   47.0611  131.7336 C   0  0  0  0  0  0  0  0  0  0  0  0
   10.6132   46.2454  130.6640 C   0  0  0  0  0  0  0  0  0  0  0  0
   10.3579   48.3399  131.9503 C   0  0  0  0  0  0  0  0  0  0  0  0
   10.4001   48.9698  133.1709 C   0  0  0  0  0  0  0  0  0  0  0  0
    9.7698   50.1809  133.3452 C   0  0  0  0  0  0  0  0  0  0  0  0
    9.0807   50.7951  132.3055 C   0  0  0  0  0  0  0  0  0  0  0  0
    9.0359   50.1675  131.0808 C   0  0  0  0  0  0  0  0  0  0  0  0
    9.6726   48.9439  130.9045 C   0  0  0  0  0  0  0  0  0  0  0  0
    9.6981   42.5812  130.8920 N   0  0  0  0  0  0  0  0  0  0  0  0
   10.2698   41.8127  131.3002 H   0  0  0  0  0  0  0  0  0  0  0  0
    8.3953   43.1907  131.8039 S   0  0  0  0  0  0  0  0  0  0  0  0
    7.4428   43.9004  130.8532 O   0  0  0  0  0  0  0  0  0  0  0  0
    7.6440   42.0405  132.4522 O   0  0  0  0  0  0  0  0  0  0  0  0
    9.5279   46.0284  135.1482 C   0  0  0  0  0  0  0  0  0  0  0  0
   10.2658   44.8837  134.9344 C   0  0  0  0  0  0  0  0  0  0  0  0
    9.9169   44.0133  133.9072 C   0  0  0  0  0  0  0  0  0  0  0  0
    8.8394   44.2685  133.0874 C   0  0  0  0  0  0  0  0  0  0  0  0
    8.1134   45.4132  133.3125 C   0  0  0  0  0  0  0  0  0  0  0  0
    8.4324   46.3047  134.3282 C   0  0  0  0  0  0  0  0  0  0  0  0
    8.9453   47.8825  136.5589 C   0  0  0  0  0  0  0  0  0  0  0  0
    9.8737   46.8947  136.1691 O   0  0  0  0  0  0  0  0  0  0  0  0
 30 31  1  0  0  0
 31 24  1  0  0  0
 24 25  2  0  0  0
 25 26  1  0  0  0
 26 27  2  0  0  0
 27 28  1  0  0  0
 28 29  2  0  0  0
 27 21  1  0  0  0
 21 22  2  0  0  0
 21 23  2  0  0  0
 21 19  1  0  0  0
 19  1  1  0  0  0
  1  2  2  0  0  0
  2  3  1  0  0  0
  3  4  2  0  0  0
  4  5  1  0  0  0
  5  6  2  0  0  0
  6  7  1  0  0  0
  7  8  2  0  0  0
  8  9  1  0  0  0
  9 10  2  0  0  0
 10 11  1  0  0  0
 11 12  2  0  0  0
 11 13  1  0  0  0
 13 14  2  0  0  0
 14 15  1  0  0  0
 15 16  2  0  0  0
 16 17  1  0  0  0
 17 18  2  0  0  0
 29 24  1  0  0  0
  6  1  1  0  0  0
 12  7  1  0  0  0
 18 13  1  0  0  0
 19 20  1  0  0  0
M  END
> <minimizedAffinity>
1.96663

> <CNNscore>
0.4233987629

> <CNNaffinity>
7.1429481506

> <CNN_VS>
3.0243153572

> <CNNaffinity_variance>
0.2768673897

$$$$
[H]c1c([H])c([H])c(-c2c([H])c([H])c([H])c(-c3c([H])c([H])c([H])c([H])c3N([H])S(=O)(=O)c3c([H])c([H])c(OC([H])([H])[H])c([H])c3[H])c2[H])c([H])c1[H]


 31 34  0  0  0  0  0  0  0  0999 V2000
    9.2950   44.2510  133.0056 C   0  0  0  0  0  0  0  0  0  0  0  0
    9.5269   43.0009  133.5407 C   0  0  0  0  0  0  0  0  0  0  0  0
   10.3986   42.7880  134.5848 C   0  0  0  0  0  0  0  0  0  0  0  0
   11.0775   43.8474  135.1344 C   0  0  0  0  0  0  0  0  0  0  0  0
   10.8589   45.0765  134.6203 C   0  0  0  0  0  0  0  0  0  0  0  0
    9.9743   45.3195  133.5551 C   0  0  0  0  0  0  0  0  0  0  0  0
    9.7776   46.6674  133.0693 C   0  0  0  0  0  0  0  0  0  0  0  0
   10.5359   47.6878  133.5817 C   0  0  0  0  0  0  0  0  0  0  0  0
   10.3540   49.0120  133.1553 C   0  0  0  0  0  0  0  0  0  0  0  0
    9.3893   49.2674  132.2032 C   0  0  0  0  0  0  0  0  0  0  0  0
    8.6153   48.2508  131.6759 C   0  0  0  0  0  0  0  0  0  0  0  0
    8.8266   46.9394  132.1278 C   0  0  0  0  0  0  0  0  0  0  0  0
    7.5983   48.5142  130.6726 C   0  0  0  0  0  0  0  0  0  0  0  0
    7.2128   49.7959  130.3609 C   0  0  0  0  0  0  0  0  0  0  0  0
    6.2460   50.0133  129.4057 C   0  0  0  0  0  0  0  0  0  0  0  0
    5.6386   48.9568  128.7364 C   0  0  0  0  0  0  0  0  0  0  0  0
    6.0217   47.6711  129.0454 C   0  0  0  0  0  0  0  0  0  0  0  0
    6.9985   47.4512  130.0106 C   0  0  0  0  0  0  0  0  0  0  0  0
    8.3745   44.3724  131.9229 N   0  0  0  0  0  0  0  0  0  0  0  0
    7.4236   44.7215  132.1631 H   0  0  0  0  0  0  0  0  0  0  0  0
    8.7045   43.9791  130.2990 S   0  0  0  0  0  0  0  0  0  0  0  0
    8.2949   42.5320  130.0695 O   0  0  0  0  0  0  0  0  0  0  0  0
    7.8696   44.8564  129.3819 O   0  0  0  0  0  0  0  0  0  0  0  0
   13.0263   44.5356  129.0613 C   0  0  0  0  0  0  0  0  0  0  0  0
   12.0119   44.8067  128.1680 C   0  0  0  0  0  0  0  0  0  0  0  0
   10.6854   44.6354  128.5494 C   0  0  0  0  0  0  0  0  0  0  0  0
   10.3545   44.1962  129.8127 C   0  0  0  0  0  0  0  0  0  0  0  0
   11.3762   43.9300  130.6921 C   0  0  0  0  0  0  0  0  0  0  0  0
   12.7115   44.0896  130.3461 C   0  0  0  0  0  0  0  0  0  0  0  0
   15.2652   43.6726  128.9615 C   0  0  0  0  0  0  0  0  0  0  0  0
   14.3456   44.7055  128.6835 O   0  0  0  0  0  0  0  0  0  0  0  0
 30 31  1  0  0  0
 31 24  1  0  0  0
 24 25  2  0  0  0
 25 26  1  0  0  0
 26 27  2  0  0  0
 27 28  1  0  0  0
 28 29  2  0  0  0
 27 21  1  0  0  0
 21 22  2  0  0  0
 21 23  2  0  0  0
 21 19  1  0  0  0
 19  1  1  0  0  0
  1  2  2  0  0  0
  2  3  1  0  0  0
  3  4  2  0  0  0
  4  5  1  0  0  0
  5  6  2  0  0  0
  6  7  1  0  0  0
  7  8  2  0  0  0
  8  9  1  0  0  0
  9 10  2  0  0  0
 10 11  1  0  0  0
 11 12  2  0  0  0
 11 13  1  0  0  0
 13 14  2  0  0  0
 14 15  1  0  0  0
 15 16  2  0  0  0
 16 17  1  0  0  0
 17 18  2  0  0  0
 29 24  1  0  0  0
  6  1  1  0  0  0
 12  7  1  0  0  0
 18 13  1  0  0  0
 19 20  1  0  0  0
M  END
> <minimizedAffinity>
-5.01455

> <CNNscore>
0.4160747230

> <CNNaffinity>
7.6289887428

> <CNN_VS>
3.1742293835

> <CNNaffinity_variance>
0.2862387300

$$$$
[H]OC(=O)c1c([H])c([H])c([H])n1-c1c([H])c([H])c(S(=O)(=O)N([H])[H])c([H])c1[H]


 21 22  0  0  0  0  0  0  0  0999 V2000
    7.5598   48.7646  129.7766 C   0  0  0  0  0  0  0  0  0  0  0  0
    8.8458   49.0747  130.1708 C   0  0  0  0  0  0  0  0  0  0  0  0
    9.7580   48.0572  130.3122 C   0  0  0  0  0  0  0  0  0  0  0  0
    9.4681   46.7282  130.0827 C   0  0  0  0  0  0  0  0  0  0  0  0
    8.1609   46.4445  129.6856 C   0  0  0  0  0  0  0  0  0  0  0  0
    7.2247   47.4474  129.5358 C   0  0  0  0  0  0  0  0  0  0  0  0
    6.9997   51.2601  128.5294 N   0  0  0  0  0  0  0  0  0  0  0  0
    6.4021   50.0712  129.5988 S   0  0  0  0  0  0  0  0  0  0  0  0
    6.1615   50.6728  130.9483 O   0  0  0  0  0  0  0  0  0  0  0  0
    5.0971   49.5444  129.0742 O   0  0  0  0  0  0  0  0  0  0  0  0
    6.4347   51.3457  127.6602 H   0  0  0  0  0  0  0  0  0  0  0  0
    7.9897   51.1554  128.2706 H   0  0  0  0  0  0  0  0  0  0  0  0
   10.4341   45.6944  130.2373 N   0  0  0  0  0  0  0  0  0  0  0  0
   11.1684   45.1066  129.2721 C   0  0  0  0  0  0  0  0  0  0  0  0
   11.9911   44.1489  129.8257 C   0  0  0  0  0  0  0  0  0  0  0  0
   11.7399   44.1614  131.1886 C   0  0  0  0  0  0  0  0  0  0  0  0
   10.7784   45.1227  131.4049 C   0  0  0  0  0  0  0  0  0  0  0  0
   10.2026   45.4867  132.6929 C   0  0  0  0  0  0  0  0  0  0  0  0
    9.0580   44.8721  133.1836 O   0  0  0  0  0  0  0  0  0  0  0  0
   10.7116   46.3783  133.4311 O   0  0  0  0  0  0  0  0  0  0  0  0
    8.3274   45.4869  133.5246 H   0  0  0  0  0  0  0  0  0  0  0  0
  7  8  1  0  0  0
  8  9  2  0  0  0
  8 10  2  0  0  0
  8  1  1  0  0  0
  1  2  2  0  0  0
  2  3  1  0  0  0
  3  4  2  0  0  0
  4  5  1  0  0  0
  5  6  2  0  0  0
  4 13  1  0  0  0
 13 14  1  0  0  0
 14 15  2  0  0  0
 15 16  1  0  0  0
 16 17  2  0  0  0
 17 18  1  0  0  0
 18 19  1  0  0  0
 18 20  2  0  0  0
  6  1  1  0  0  0
 17 13  1  0  0  0
  7 11  1  0  0  0
  7 12  1  0  0  0
 19 21  1  0  0  0
M  END
> <minimizedAffinity>
-6.81103

> <CNNscore>
0.4618165493

> <CNNaffinity>
5.9118766785

> <CNN_VS>
2.7302024364

> <CNNaffinity_variance>
0.0992192477

$$$$
[H]OC(=O)c1c([H])c([H])c([H])n1-c1c([H])c([H])c(S(=O)(=O)N([H])[H])c([H])c1[H]


 21 22  0  0  0  0  0  0  0  0999 V2000
    7.6664   48.7877  130.0907 C   0  0  0  0  0  0  0  0  0  0  0  0
    8.9371   49.2241  130.4076 C   0  0  0  0  0  0  0  0  0  0  0  0
    9.8916   48.2944  130.7421 C   0  0  0  0  0  0  0  0  0  0  0  0
    9.6593   46.9352  130.7824 C   0  0  0  0  0  0  0  0  0  0  0  0
    8.3664   46.5233  130.4575 C   0  0  0  0  0  0  0  0  0  0  0  0
    7.3885   47.4360  130.1178 C   0  0  0  0  0  0  0  0  0  0  0  0
    7.0870   51.1056  128.5452 N   0  0  0  0  0  0  0  0  0  0  0  0
    6.4542   49.9828  129.6646 S   0  0  0  0  0  0  0  0  0  0  0  0
    6.0323   50.6905  130.9145 O   0  0  0  0  0  0  0  0  0  0  0  0
    5.2492   49.3141  129.0678 O   0  0  0  0  0  0  0  0  0  0  0  0
    6.6145   51.0665  127.6193 H   0  0  0  0  0  0  0  0  0  0  0  0
    8.1038   51.0499  128.3995 H   0  0  0  0  0  0  0  0  0  0  0  0
   10.6683   45.9945  131.1328 N   0  0  0  0  0  0  0  0  0  0  0  0
   11.3364   45.9045  132.2999 C   0  0  0  0  0  0  0  0  0  0  0  0
   12.2344   44.8597  132.2474 C   0  0  0  0  0  0  0  0  0  0  0  0
   12.0998   44.2945  130.9892 C   0  0  0  0  0  0  0  0  0  0  0  0
   11.1294   45.0170  130.3324 C   0  0  0  0  0  0  0  0  0  0  0  0
   10.6537   44.7810  128.9755 C   0  0  0  0  0  0  0  0  0  0  0  0
   10.0013   43.6072  128.6218 O   0  0  0  0  0  0  0  0  0  0  0  0
   10.8084   45.6286  128.0500 O   0  0  0  0  0  0  0  0  0  0  0  0
   10.3365   43.1395  127.7870 H   0  0  0  0  0  0  0  0  0  0  0  0
  7  8  1  0  0  0
  8  9  2  0  0  0
  8 10  2  0  0  0
  8  1  1  0  0  0
  1  2  2  0  0  0
  2  3  1  0  0  0
  3  4  2  0  0  0
  4  5  1  0  0  0
  5  6  2  0  0  0
  4 13  1  0  0  0
 13 14  1  0  0  0
 14 15  2  0  0  0
 15 16  1  0  0  0
 16 17  2  0  0  0
 17 18  1  0  0  0
 18 19  1  0  0  0
 18 20  2  0  0  0
  6  1  1  0  0  0
 17 13  1  0  0  0
  7 11  1  0  0  0
  7 12  1  0  0  0
 19 21  1  0  0  0
M  END
> <minimizedAffinity>
-6.96814

> <CNNscore>
0.4070860445

> <CNNaffinity>
5.6792764664

> <CNN_VS>
2.3119542599

> <CNNaffinity_variance>
0.1231268048

$$$$
[H]OC(=O)c1c([H])c([H])c([H])n1-c1c([H])c([H])c(S(=O)(=O)N([H])[H])c([H])c1[H]


 21 22  0  0  0  0  0  0  0  0999 V2000
   10.7003   45.0639  132.5674 C   0  0  0  0  0  0  0  0  0  0  0  0
    9.6970   45.7588  133.2123 C   0  0  0  0  0  0  0  0  0  0  0  0
    8.7633   46.4258  132.4568 C   0  0  0  0  0  0  0  0  0  0  0  0
    8.7635   46.4462  131.0775 C   0  0  0  0  0  0  0  0  0  0  0  0
    9.7890   45.7354  130.4530 C   0  0  0  0  0  0  0  0  0  0  0  0
   10.7399   45.0567  131.1877 C   0  0  0  0  0  0  0  0  0  0  0  0
   12.6247   42.9690  132.6364 N   0  0  0  0  0  0  0  0  0  0  0  0
   11.8882   44.2152  133.5411 S   0  0  0  0  0  0  0  0  0  0  0  0
   11.1920   43.6374  134.7337 O   0  0  0  0  0  0  0  0  0  0  0  0
   12.9446   45.1677  134.0232 O   0  0  0  0  0  0  0  0  0  0  0  0
   13.6409   43.1267  132.4796 H   0  0  0  0  0  0  0  0  0  0  0  0
   12.1789   42.7651  131.7320 H   0  0  0  0  0  0  0  0  0  0  0  0
    7.7825   47.1463  130.3203 N   0  0  0  0  0  0  0  0  0  0  0  0
    6.6513   46.6482  129.7830 C   0  0  0  0  0  0  0  0  0  0  0  0
    5.9660   47.6460  129.1232 C   0  0  0  0  0  0  0  0  0  0  0  0
    6.7207   48.7990  129.2709 C   0  0  0  0  0  0  0  0  0  0  0  0
    7.8289   48.4544  130.0115 C   0  0  0  0  0  0  0  0  0  0  0  0
    8.9050   49.3504  130.4143 C   0  0  0  0  0  0  0  0  0  0  0  0
    8.6535   50.5516  131.0642 O   0  0  0  0  0  0  0  0  0  0  0  0
   10.1216   49.0840  130.1951 O   0  0  0  0  0  0  0  0  0  0  0  0
    9.1175   51.3719  130.6903 H   0  0  0  0  0  0  0  0  0  0  0  0
  7  8  1  0  0  0
  8  9  2  0  0  0
  8 10  2  0  0  0
  8  1  1  0  0  0
  1  2  2  0  0  0
  2  3  1  0  0  0
  3  4  2  0  0  0
  4  5  1  0  0  0
  5  6  2  0  0  0
  4 13  1  0  0  0
 13 14  1  0  0  0
 14 15  2  0  0  0
 15 16  1  0  0  0
 16 17  2  0  0  0
 17 18  1  0  0  0
 18 19  1  0  0  0
 18 20  2  0  0  0
  6  1  1  0  0  0
 17 13  1  0  0  0
  7 11  1  0  0  0
  7 12  1  0  0  0
 19 21  1  0  0  0
M  END
> <minimizedAffinity>
-7.22694

> <CNNscore>
0.3803504705

> <CNNaffinity>
6.1096639633

> <CNN_VS>
2.3238136768

> <CNNaffinity_variance>
0.0791571885

$$$$
[H]OC(=O)c1c([H])c([H])c([H])n1-c1c([H])c([H])c(S(=O)(=O)N([H])[H])c([H])c1[H]


 21 22  0  0  0  0  0  0  0  0999 V2000
   10.2763   44.9822  132.6302 C   0  0  0  0  0  0  0  0  0  0  0  0
   10.5669   45.3181  131.3232 C   0  0  0  0  0  0  0  0  0  0  0  0
    9.9612   46.4219  130.7736 C   0  0  0  0  0  0  0  0  0  0  0  0
    9.0698   47.2269  131.4522 C   0  0  0  0  0  0  0  0  0  0  0  0
    8.7951   46.8633  132.7710 C   0  0  0  0  0  0  0  0  0  0  0  0
    9.3896   45.7594  133.3477 C   0  0  0  0  0  0  0  0  0  0  0  0
   12.4954   43.2073  132.4822 N   0  0  0  0  0  0  0  0  0  0  0  0
   11.0550   43.5706  133.3233 S   0  0  0  0  0  0  0  0  0  0  0  0
   10.1052   42.4173  133.2312 O   0  0  0  0  0  0  0  0  0  0  0  0
   11.3739   43.8088  134.7714 O   0  0  0  0  0  0  0  0  0  0  0  0
   13.3471   43.3135  133.0701 H   0  0  0  0  0  0  0  0  0  0  0  0
   12.6319   43.7287  131.6061 H   0  0  0  0  0  0  0  0  0  0  0  0
    8.4571   48.3652  130.8567 N   0  0  0  0  0  0  0  0  0  0  0  0
    8.8435   49.6523  130.9586 C   0  0  0  0  0  0  0  0  0  0  0  0
    7.9895   50.4575  130.2353 C   0  0  0  0  0  0  0  0  0  0  0  0
    7.0449   49.6147  129.6716 C   0  0  0  0  0  0  0  0  0  0  0  0
    7.3633   48.3374  130.0746 C   0  0  0  0  0  0  0  0  0  0  0  0
    6.6425   47.1210  129.7227 C   0  0  0  0  0  0  0  0  0  0  0  0
    5.9646   46.9941  128.5173 O   0  0  0  0  0  0  0  0  0  0  0  0
    6.5951   46.1189  130.4923 O   0  0  0  0  0  0  0  0  0  0  0  0
    5.0114   46.6528  128.5703 H   0  0  0  0  0  0  0  0  0  0  0  0
  7  8  1  0  0  0
  8  9  2  0  0  0
  8 10  2  0  0  0
  8  1  1  0  0  0
  1  2  2  0  0  0
  2  3  1  0  0  0
  3  4  2  0  0  0
  4  5  1  0  0  0
  5  6  2  0  0  0
  4 13  1  0  0  0
 13 14  1  0  0  0
 14 15  2  0  0  0
 15 16  1  0  0  0
 16 17  2  0  0  0
 17 18  1  0  0  0
 18 19  1  0  0  0
 18 20  2  0  0  0
  6  1  1  0  0  0
 17 13  1  0  0  0
  7 11  1  0  0  0
  7 12  1  0  0  0
 19 21  1  0  0  0
M  END
> <minimizedAffinity>
-7.70144

> <CNNscore>
0.3629974425

> <CNNaffinity>
6.2828464508

> <CNN_VS>
2.2806572914

> <CNNaffinity_variance>
0.1178480834

$$$$
[H]OC(=O)c1c([H])c([H])c([H])n1-c1c([H])c([H])c(S(=O)(=O)N([H])[H])c([H])c1[H]


 21 22  0  0  0  0  0  0  0  0999 V2000
   10.3345   44.9133  132.5362 C   0  0  0  0  0  0  0  0  0  0  0  0
    9.4668   45.6761  133.2917 C   0  0  0  0  0  0  0  0  0  0  0  0
    8.8835   46.7791  132.7168 C   0  0  0  0  0  0  0  0  0  0  0  0
    9.1119   47.1790  131.4164 C   0  0  0  0  0  0  0  0  0  0  0  0
    9.9931   46.3894  130.6769 C   0  0  0  0  0  0  0  0  0  0  0  0
   10.5928   45.2761  131.2298 C   0  0  0  0  0  0  0  0  0  0  0  0
   12.5118   43.0829  132.4618 N   0  0  0  0  0  0  0  0  0  0  0  0
   11.0743   43.5063  133.2794 S   0  0  0  0  0  0  0  0  0  0  0  0
   10.0981   42.3733  133.2159 O   0  0  0  0  0  0  0  0  0  0  0  0
   11.3882   43.7824  134.7219 O   0  0  0  0  0  0  0  0  0  0  0  0
   13.3614   43.1875  133.0528 H   0  0  0  0  0  0  0  0  0  0  0  0
   12.6670   43.5732  131.5709 H   0  0  0  0  0  0  0  0  0  0  0  0
    8.4931   48.3273  130.8470 N   0  0  0  0  0  0  0  0  0  0  0  0
    8.8854   49.6118  130.9602 C   0  0  0  0  0  0  0  0  0  0  0  0
    8.0221   50.4294  130.2624 C   0  0  0  0  0  0  0  0  0  0  0  0
    7.0655   49.5973  129.7029 C   0  0  0  0  0  0  0  0  0  0  0  0
    7.3865   48.3137  130.0830 C   0  0  0  0  0  0  0  0  0  0  0  0
    6.6559   47.1044  129.7263 C   0  0  0  0  0  0  0  0  0  0  0  0
    5.9865   46.9832  128.5156 O   0  0  0  0  0  0  0  0  0  0  0  0
    6.5919   46.1036  130.4965 O   0  0  0  0  0  0  0  0  0  0  0  0
    5.0294   46.6519  128.5613 H   0  0  0  0  0  0  0  0  0  0  0  0
  7  8  1  0  0  0
  8  9  2  0  0  0
  8 10  2  0  0  0
  8  1  1  0  0  0
  1  2  2  0  0  0
  2  3  1  0  0  0
  3  4  2  0  0  0
  4  5  1  0  0  0
  5  6  2  0  0  0
  4 13  1  0  0  0
 13 14  1  0  0  0
 14 15  2  0  0  0
 15 16  1  0  0  0
 16 17  2  0  0  0
 17 18  1  0  0  0
 18 19  1  0  0  0
 18 20  2  0  0  0
  6  1  1  0  0  0
 17 13  1  0  0  0
  7 11  1  0  0  0
  7 12  1  0  0  0
 19 21  1  0  0  0
M  END
> <minimizedAffinity>
-7.69193

> <CNNscore>
0.3601074219

> <CNNaffinity>
6.2906455994

> <CNN_VS>
2.2653081417

> <CNNaffinity_variance>
0.1221931428

$$$$
[H]OC(=O)c1c([H])c([H])c([H])n1-c1c([H])c([H])c(S(=O)(=O)N([H])[H])c([H])c1[H]


 21 22  0  0  0  0  0  0  0  0999 V2000
    9.9339   44.3243  131.7831 C   0  0  0  0  0  0  0  0  0  0  0  0
    8.7832   44.7547  132.4124 C   0  0  0  0  0  0  0  0  0  0  0  0
    8.0862   45.8067  131.8694 C   0  0  0  0  0  0  0  0  0  0  0  0
    8.4669   46.4695  130.7210 C   0  0  0  0  0  0  0  0  0  0  0  0
    9.6336   46.0130  130.1067 C   0  0  0  0  0  0  0  0  0  0  0  0
   10.3529   44.9582  130.6308 C   0  0  0  0  0  0  0  0  0  0  0  0
   12.3394   43.4970  133.0581 N   0  0  0  0  0  0  0  0  0  0  0  0
   10.8171   42.9799  132.4843 S   0  0  0  0  0  0  0  0  0  0  0  0
   10.9977   41.9344  131.4283 O   0  0  0  0  0  0  0  0  0  0  0  0
   10.0383   42.3790  133.6192 O   0  0  0  0  0  0  0  0  0  0  0  0
   12.4345   43.4131  134.0906 H   0  0  0  0  0  0  0  0  0  0  0  0
   12.6104   44.4489  132.7779 H   0  0  0  0  0  0  0  0  0  0  0  0
    7.7246   47.5572  130.1810 N   0  0  0  0  0  0  0  0  0  0  0  0
    6.6014   47.4957  129.4386 C   0  0  0  0  0  0  0  0  0  0  0  0
    6.1869   48.7683  129.1080 C   0  0  0  0  0  0  0  0  0  0  0  0
    7.1042   49.6364  129.6787 C   0  0  0  0  0  0  0  0  0  0  0  0
    8.0341   48.8575  130.3297 C   0  0  0  0  0  0  0  0  0  0  0  0
    9.1890   49.3414  131.0749 C   0  0  0  0  0  0  0  0  0  0  0  0
    9.2224   49.3295  132.4631 O   0  0  0  0  0  0  0  0  0  0  0  0
   10.2195   49.7965  130.5005 O   0  0  0  0  0  0  0  0  0  0  0  0
    9.5086   50.1912  132.9142 H   0  0  0  0  0  0  0  0  0  0  0  0
  7  8  1  0  0  0
  8  9  2  0  0  0
  8 10  2  0  0  0
  8  1  1  0  0  0
  1  2  2  0  0  0
  2  3  1  0  0  0
  3  4  2  0  0  0
  4  5  1  0  0  0
  5  6  2  0  0  0
  4 13  1  0  0  0
 13 14  1  0  0  0
 14 15  2  0  0  0
 15 16  1  0  0  0
 16 17  2  0  0  0
 17 18  1  0  0  0
 18 19  1  0  0  0
 18 20  2  0  0  0
  6  1  1  0  0  0
 17 13  1  0  0  0
  7 11  1  0  0  0
  7 12  1  0  0  0
 19 21  1  0  0  0
M  END
> <minimizedAffinity>
-6.94684

> <CNNscore>
0.3474885523

> <CNNaffinity>
6.1073374748

> <CNN_VS>
2.1222298145

> <CNNaffinity_variance>
0.0606652498

$$$$
[H]OC(=O)c1c([H])c([H])c([H])n1-c1c([H])c([H])c(S(=O)(=O)N([H])[H])c([H])c1[H]


 21 22  0  0  0  0  0  0  0  0999 V2000
    9.8666   44.3386  131.8485 C   0  0  0  0  0  0  0  0  0  0  0  0
   10.2794   44.9097  130.6616 C   0  0  0  0  0  0  0  0  0  0  0  0
    9.5651   45.9671  130.1526 C   0  0  0  0  0  0  0  0  0  0  0  0
    8.4474   46.5021  130.7589 C   0  0  0  0  0  0  0  0  0  0  0  0
    8.0535   45.9049  131.9569 C   0  0  0  0  0  0  0  0  0  0  0  0
    8.7529   44.8415  132.4904 C   0  0  0  0  0  0  0  0  0  0  0  0
   12.3020   43.5170  133.0693 N   0  0  0  0  0  0  0  0  0  0  0  0
   10.7855   42.9886  132.4906 S   0  0  0  0  0  0  0  0  0  0  0  0
   10.9779   41.9874  131.3944 O   0  0  0  0  0  0  0  0  0  0  0  0
   10.0312   42.3288  133.6092 O   0  0  0  0  0  0  0  0  0  0  0  0
   12.4092   43.3968  134.0970 H   0  0  0  0  0  0  0  0  0  0  0  0
   12.5496   44.4845  132.8225 H   0  0  0  0  0  0  0  0  0  0  0  0
    7.7266   47.5988  130.2080 N   0  0  0  0  0  0  0  0  0  0  0  0
    6.6023   47.5521  129.4662 C   0  0  0  0  0  0  0  0  0  0  0  0
    6.2130   48.8293  129.1229 C   0  0  0  0  0  0  0  0  0  0  0  0
    7.1473   49.6847  129.6850 C   0  0  0  0  0  0  0  0  0  0  0  0
    8.0618   48.8941  130.3438 C   0  0  0  0  0  0  0  0  0  0  0  0
    9.2261   49.3625  131.0842 C   0  0  0  0  0  0  0  0  0  0  0  0
    9.2570   49.3700  132.4725 O   0  0  0  0  0  0  0  0  0  0  0  0
   10.2675   49.7858  130.5052 O   0  0  0  0  0  0  0  0  0  0  0  0
    9.5619   50.2315  132.9117 H   0  0  0  0  0  0  0  0  0  0  0  0
  7  8  1  0  0  0
  8  9  2  0  0  0
  8 10  2  0  0  0
  8  1  1  0  0  0
  1  2  2  0  0  0
  2  3  1  0  0  0
  3  4  2  0  0  0
  4  5  1  0  0  0
  5  6  2  0  0  0
  4 13  1  0  0  0
 13 14  1  0  0  0
 14 15  2  0  0  0
 15 16  1  0  0  0
 16 17  2  0  0  0
 17 18  1  0  0  0
 18 19  1  0  0  0
 18 20  2  0  0  0
  6  1  1  0  0  0
 17 13  1  0  0  0
  7 11  1  0  0  0
  7 12  1  0  0  0
 19 21  1  0  0  0
M  END
> <minimizedAffinity>
-6.86347

> <CNNscore>
0.3340783715

> <CNNaffinity>
6.1010971069

> <CNN_VS>
2.0382444859

> <CNNaffinity_variance>
0.0572774112

$$$$
[H]OC(=O)c1c([H])c([H])c([H])n1-c1c([H])c([H])c(S(=O)(=O)N([H])[H])c([H])c1[H]


 21 22  0  0  0  0  0  0  0  0999 V2000
    7.6174   47.8275  130.3845 C   0  0  0  0  0  0  0  0  0  0  0  0
    8.6028   47.9637  131.3415 C   0  0  0  0  0  0  0  0  0  0  0  0
    9.1701   46.8308  131.8727 C   0  0  0  0  0  0  0  0  0  0  0  0
    8.8140   45.5492  131.5068 C   0  0  0  0  0  0  0  0  0  0  0  0
    7.8158   45.4423  130.5378 C   0  0  0  0  0  0  0  0  0  0  0  0
    7.2291   46.5638  129.9876 C   0  0  0  0  0  0  0  0  0  0  0  0
    5.3723   48.9342  129.0313 N   0  0  0  0  0  0  0  0  0  0  0  0
    6.8989   49.2804  129.7120 S   0  0  0  0  0  0  0  0  0  0  0  0
    7.8184   49.8150  128.6585 O   0  0  0  0  0  0  0  0  0  0  0  0
    6.7400   50.3258  130.7785 O   0  0  0  0  0  0  0  0  0  0  0  0
    4.5898   49.4096  129.5252 H   0  0  0  0  0  0  0  0  0  0  0  0
    5.1496   47.9335  128.9466 H   0  0  0  0  0  0  0  0  0  0  0  0
    9.4195   44.3930  132.0746 N   0  0  0  0  0  0  0  0  0  0  0  0
    8.8405   43.4686  132.8661 C   0  0  0  0  0  0  0  0  0  0  0  0
    9.7612   42.5016  133.2095 C   0  0  0  0  0  0  0  0  0  0  0  0
   10.9502   42.8614  132.5953 C   0  0  0  0  0  0  0  0  0  0  0  0
   10.7029   44.0278  131.9071 C   0  0  0  0  0  0  0  0  0  0  0  0
   11.6666   44.7752  131.1096 C   0  0  0  0  0  0  0  0  0  0  0  0
   12.6198   45.5985  131.6947 O   0  0  0  0  0  0  0  0  0  0  0  0
   11.6875   44.7151  129.8468 O   0  0  0  0  0  0  0  0  0  0  0  0
   12.7026   46.5339  131.3126 H   0  0  0  0  0  0  0  0  0  0  0  0
  7  8  1  0  0  0
  8  9  2  0  0  0
  8 10  2  0  0  0
  8  1  1  0  0  0
  1  2  2  0  0  0
  2  3  1  0  0  0
  3  4  2  0  0  0
  4  5  1  0  0  0
  5  6  2  0  0  0
  4 13  1  0  0  0
 13 14  1  0  0  0
 14 15  2  0  0  0
 15 16  1  0  0  0
 16 17  2  0  0  0
 17 18  1  0  0  0
 18 19  1  0  0  0
 18 20  2  0  0  0
  6  1  1  0  0  0
 17 13  1  0  0  0
  7 11  1  0  0  0
  7 12  1  0  0  0
 19 21  1  0  0  0
M  END
> <minimizedAffinity>
-6.77061

> <CNNscore>
0.3301825523

> <CNNaffinity>
5.9267730713

> <CNN_VS>
1.9569170475

> <CNNaffinity_variance>
0.1482855082

$$$$
[H]OC(=O)c1c([H])c([H])c([H])n1-c1c([H])c([H])c(S(=O)(=O)N([H])[H])c([H])c1[H]


 21 22  0  0  0  0  0  0  0  0999 V2000
    7.8767   47.2600  130.2060 C   0  0  0  0  0  0  0  0  0  0  0  0
    7.4801   46.0385  130.7119 C   0  0  0  0  0  0  0  0  0  0  0  0
    8.3476   45.3438  131.5196 C   0  0  0  0  0  0  0  0  0  0  0  0
    9.6057   45.7940  131.8623 C   0  0  0  0  0  0  0  0  0  0  0  0
    9.9795   47.0312  131.3366 C   0  0  0  0  0  0  0  0  0  0  0  0
    9.1277   47.7500  130.5226 C   0  0  0  0  0  0  0  0  0  0  0  0
    5.4342   47.1544  128.7502 N   0  0  0  0  0  0  0  0  0  0  0  0
    6.7618   48.1397  129.1753 S   0  0  0  0  0  0  0  0  0  0  0  0
    7.4972   48.5652  127.9428 O   0  0  0  0  0  0  0  0  0  0  0  0
    6.2611   49.3691  129.8777 O   0  0  0  0  0  0  0  0  0  0  0  0
    4.5311   47.5028  129.1312 H   0  0  0  0  0  0  0  0  0  0  0  0
    5.5337   46.1600  128.9940 H   0  0  0  0  0  0  0  0  0  0  0  0
   10.4836   45.0522  132.7018 N   0  0  0  0  0  0  0  0  0  0  0  0
   10.5048   45.0279  134.0492 C   0  0  0  0  0  0  0  0  0  0  0  0
   11.5044   44.1859  134.4879 C   0  0  0  0  0  0  0  0  0  0  0  0
   12.1131   43.6796  133.3504 C   0  0  0  0  0  0  0  0  0  0  0  0
   11.4602   44.2334  132.2723 C   0  0  0  0  0  0  0  0  0  0  0  0
   11.7604   43.9877  130.8678 C   0  0  0  0  0  0  0  0  0  0  0  0
   10.9058   43.2565  130.0532 O   0  0  0  0  0  0  0  0  0  0  0  0
   12.8108   44.4252  130.3164 O   0  0  0  0  0  0  0  0  0  0  0  0
   11.3305   42.5195  129.5013 H   0  0  0  0  0  0  0  0  0  0  0  0
  7  8  1  0  0  0
  8  9  2  0  0  0
  8 10  2  0  0  0
  8  1  1  0  0  0
  1  2  2  0  0  0
  2  3  1  0  0  0
  3  4  2  0  0  0
  4  5  1  0  0  0
  5  6  2  0  0  0
  4 13  1  0  0  0
 13 14  1  0  0  0
 14 15  2  0  0  0
 15 16  1  0  0  0
 16 17  2  0  0  0
 17 18  1  0  0  0
 18 19  1  0  0  0
 18 20  2  0  0  0
  6  1  1  0  0  0
 17 13  1  0  0  0
  7 11  1  0  0  0
  7 12  1  0  0  0
 19 21  1  0  0  0
M  END
> <minimizedAffinity>
-7.34450

> <CNNscore>
0.3218858838

> <CNNaffinity>
5.8500032425

> <CNN_VS>
1.8830335140

> <CNNaffinity_variance>
0.1531610340

$$$$
[H]c1c([H])c([H])c(C(=O)N([H])c2nnc(-c3c([H])c([H])c(Oc4c([H])c([H])c([N+](=O)[O-])c([H])c4[N+](=O)[O-])c([H])c3[H])s2)c(OC([H])([H])[H])c1[H]


 36 39  0  0  0  0  0  0  0  0999 V2000
   10.3280   43.4578  130.7936 C   0  0  0  0  0  0  0  0  0  0  0  0
   10.2316   43.3076  132.1501 C   0  0  0  0  0  0  0  0  0  0  0  0
   10.5051   44.3557  133.0146 C   0  0  0  0  0  0  0  0  0  0  0  0
   10.8802   45.5703  132.5075 C   0  0  0  0  0  0  0  0  0  0  0  0
   10.9845   45.7460  131.1476 C   0  0  0  0  0  0  0  0  0  0  0  0
   10.7069   44.6894  130.3256 C   0  0  0  0  0  0  0  0  0  0  0  0
    9.5853   40.7630  127.8354 C   0  0  0  0  0  0  0  0  0  0  0  0
    9.6290   40.3131  129.1288 N   0  0  0  0  0  0  0  0  0  0  0  0
    9.8514   41.0966  130.0600 N   0  0  0  0  0  0  0  0  0  0  0  0
   10.0535   42.3904  129.8333 C   0  0  0  0  0  0  0  0  0  0  0  0
    9.8995   42.4173  128.1382 S   0  0  0  0  0  0  0  0  0  0  0  0
   10.1911   39.0506  126.0143 C   0  0  0  0  0  0  0  0  0  0  0  0
    9.3816   38.2852  125.2192 O   0  0  0  0  0  0  0  0  0  0  0  0
    9.4759   39.9426  126.6968 N   0  0  0  0  0  0  0  0  0  0  0  0
    8.3639   39.8988  126.4233 H   0  0  0  0  0  0  0  0  0  0  0  0
   12.2939   38.9871  124.7297 C   0  0  0  0  0  0  0  0  0  0  0  0
   13.6683   38.6982  124.6401 C   0  0  0  0  0  0  0  0  0  0  0  0
   14.3263   38.0520  125.6496 C   0  0  0  0  0  0  0  0  0  0  0  0
   13.5823   37.7009  126.7490 C   0  0  0  0  0  0  0  0  0  0  0  0
   12.2440   37.9733  126.8602 C   0  0  0  0  0  0  0  0  0  0  0  0
   11.5416   38.6518  125.8129 C   0  0  0  0  0  0  0  0  0  0  0  0
   10.5946   39.1214  122.9665 C   0  0  0  0  0  0  0  0  0  0  0  0
   11.7429   39.6240  123.6322 O   0  0  0  0  0  0  0  0  0  0  0  0
   11.1517   46.6159  133.3903 O   0  0  0  0  0  0  0  0  0  0  0  0
   10.1473   47.2480  134.1111 C   0  0  0  0  0  0  0  0  0  0  0  0
    9.8647   46.7835  135.3806 C   0  0  0  0  0  0  0  0  0  0  0  0
    8.8655   47.4119  136.0988 C   0  0  0  0  0  0  0  0  0  0  0  0
    8.1740   48.4732  135.5553 C   0  0  0  0  0  0  0  0  0  0  0  0
    8.4814   48.9164  134.2774 C   0  0  0  0  0  0  0  0  0  0  0  0
    9.4815   48.3063  133.5277 C   0  0  0  0  0  0  0  0  0  0  0  0
    9.7986   48.7597  132.2186 N   0  0  0  0  0  0  0  0  0  0  0  0
   10.1254   50.0626  131.9539 O   0  0  0  0  0  0  0  0  0  0  0  0
    9.7860   47.9592  131.2681 O   0  0  0  0  0  0  0  0  0  0  0  0
    7.1439   49.1340  136.2754 N   0  0  0  0  0  0  0  0  0  0  0  0
    6.6181   50.3088  135.8541 O   0  0  0  0  0  0  0  0  0  0  0  0
    6.7271   48.6027  137.3186 O   0  0  0  0  0  0  0  0  0  0  0  0
 22 23  1  0  0  0
 23 16  1  0  0  0
 16 17  2  0  0  0
 17 18  1  0  0  0
 18 19  2  0  0  0
 19 20  1  0  0  0
 20 21  2  0  0  0
 21 12  1  0  0  0
 12 13  2  0  0  0
 12 14  1  0  0  0
 14  7  1  0  0  0
  7  8  2  0  0  0
  8  9  1  0  0  0
  9 10  2  0  0  0
 10 11  1  0  0  0
 10  1  1  0  0  0
  1  2  2  0  0  0
  2  3  1  0  0  0
  3  4  2  0  0  0
  4 24  1  0  0  0
 24 25  1  0  0  0
 25 26  2  0  0  0
 26 27  1  0  0  0
 27 28  2  0  0  0
 28 29  1  0  0  0
 29 30  2  0  0  0
 30 31  1  0  0  0
 31 32  1  0  0  0
 31 33  2  0  0  0
 28 34  1  0  0  0
 34 35  1  0  0  0
 34 36  2  0  0  0
  4  5  1  0  0  0
  5  6  2  0  0  0
 21 16  1  0  0  0
 11  7  1  0  0  0
  6  1  1  0  0  0
 30 25  1  0  0  0
 14 15  1  0  0  0
M  CHG 1  31   1
M  CHG 1  32  -1
M  CHG 1  34   1
M  CHG 1  35  -1
M  END
> <minimizedAffinity>
34.65344

> <CNNscore>
0.5540196896

> <CNNaffinity>
6.9199838638

> <CNN_VS>
3.8338072300

> <CNNaffinity_variance>
0.7906488180

$$$$
[H]c1c([H])c([H])c(C(=O)N([H])c2nnc(-c3c([H])c([H])c(Oc4c([H])c([H])c([N+](=O)[O-])c([H])c4[N+](=O)[O-])c([H])c3[H])s2)c(OC([H])([H])[H])c1[H]


 36 39  0  0  0  0  0  0  0  0999 V2000
    9.1362   43.6407  129.8843 C   0  0  0  0  0  0  0  0  0  0  0  0
    9.1063   43.1337  131.1547 C   0  0  0  0  0  0  0  0  0  0  0  0
    8.9350   43.9559  132.2572 C   0  0  0  0  0  0  0  0  0  0  0  0
    8.7919   45.3053  132.0787 C   0  0  0  0  0  0  0  0  0  0  0  0
    8.8188   45.8388  130.8114 C   0  0  0  0  0  0  0  0  0  0  0  0
    8.9898   44.9969  129.7479 C   0  0  0  0  0  0  0  0  0  0  0  0
    9.7685   41.0817  126.7832 C   0  0  0  0  0  0  0  0  0  0  0  0
    9.2633   42.3251  126.5075 N   0  0  0  0  0  0  0  0  0  0  0  0
    9.0553   43.1356  127.4188 N   0  0  0  0  0  0  0  0  0  0  0  0
    9.3145   42.8247  128.6846 C   0  0  0  0  0  0  0  0  0  0  0  0
    9.8973   41.2381  128.4820 S   0  0  0  0  0  0  0  0  0  0  0  0
   10.8131   39.1362  125.4644 C   0  0  0  0  0  0  0  0  0  0  0  0
   10.2148   38.1236  124.7643 O   0  0  0  0  0  0  0  0  0  0  0  0
    9.9145   40.0418  125.8459 N   0  0  0  0  0  0  0  0  0  0  0  0
    8.8654   39.7931  125.4578 H   0  0  0  0  0  0  0  0  0  0  0  0
   12.8289   38.1150  126.4494 C   0  0  0  0  0  0  0  0  0  0  0  0
   14.1936   37.7793  126.3779 C   0  0  0  0  0  0  0  0  0  0  0  0
   14.9836   38.2276  125.3558 C   0  0  0  0  0  0  0  0  0  0  0  0
   14.3813   39.0178  124.4081 C   0  0  0  0  0  0  0  0  0  0  0  0
   13.0543   39.3563  124.4549 C   0  0  0  0  0  0  0  0  0  0  0  0
   12.2135   38.8922  125.5172 C   0  0  0  0  0  0  0  0  0  0  0  0
   11.8910   38.4052  128.6967 C   0  0  0  0  0  0  0  0  0  0  0  0
   12.1459   37.6169  127.5445 O   0  0  0  0  0  0  0  0  0  0  0  0
    8.6197   46.1200  133.1980 O   0  0  0  0  0  0  0  0  0  0  0  0
    8.8924   47.4809  133.1647 C   0  0  0  0  0  0  0  0  0  0  0  0
    8.0015   48.3086  132.5101 C   0  0  0  0  0  0  0  0  0  0  0  0
    8.2718   49.6632  132.4766 C   0  0  0  0  0  0  0  0  0  0  0  0
    9.4028   50.1668  133.0826 C   0  0  0  0  0  0  0  0  0  0  0  0
   10.2784   49.3094  133.7323 C   0  0  0  0  0  0  0  0  0  0  0  0
   10.0360   47.9409  133.7848 C   0  0  0  0  0  0  0  0  0  0  0  0
   10.9314   47.0610  134.4511 N   0  0  0  0  0  0  0  0  0  0  0  0
   12.1163   47.4894  134.9866 O   0  0  0  0  0  0  0  0  0  0  0  0
   10.6448   45.8570  134.5629 O   0  0  0  0  0  0  0  0  0  0  0  0
    9.7002   51.5551  133.0609 N   0  0  0  0  0  0  0  0  0  0  0  0
   10.5033   52.1284  133.9886 O   0  0  0  0  0  0  0  0  0  0  0  0
    9.1996   52.2456  132.1571 O   0  0  0  0  0  0  0  0  0  0  0  0
 22 23  1  0  0  0
 23 16  1  0  0  0
 16 17  2  0  0  0
 17 18  1  0  0  0
 18 19  2  0  0  0
 19 20  1  0  0  0
 20 21  2  0  0  0
 21 12  1  0  0  0
 12 13  2  0  0  0
 12 14  1  0  0  0
 14  7  1  0  0  0
  7  8  2  0  0  0
  8  9  1  0  0  0
  9 10  2  0  0  0
 10 11  1  0  0  0
 10  1  1  0  0  0
  1  2  2  0  0  0
  2  3  1  0  0  0
  3  4  2  0  0  0
  4 24  1  0  0  0
 24 25  1  0  0  0
 25 26  2  0  0  0
 26 27  1  0  0  0
 27 28  2  0  0  0
 28 29  1  0  0  0
 29 30  2  0  0  0
 30 31  1  0  0  0
 31 32  1  0  0  0
 31 33  2  0  0  0
 28 34  1  0  0  0
 34 35  1  0  0  0
 34 36  2  0  0  0
  4  5  1  0  0  0
  5  6  2  0  0  0
 21 16  1  0  0  0
 11  7  1  0  0  0
  6  1  1  0  0  0
 30 25  1  0  0  0
 14 15  1  0  0  0
M  CHG 1  31   1
M  CHG 1  32  -1
M  CHG 1  34   1
M  CHG 1  35  -1
M  END
> <minimizedAffinity>
37.09303

> <CNNscore>
0.5340006948

> <CNNaffinity>
6.8417787552

> <CNN_VS>
3.6535146236

> <CNNaffinity_variance>
1.1873843670

$$$$
[H]c1c([H])c([H])c(C(=O)N([H])c2nnc(-c3c([H])c([H])c(Oc4c([H])c([H])c([N+](=O)[O-])c([H])c4[N+](=O)[O-])c([H])c3[H])s2)c(OC([H])([H])[H])c1[H]


 36 39  0  0  0  0  0  0  0  0999 V2000
    8.2693   48.7344  129.2499 C   0  0  0  0  0  0  0  0  0  0  0  0
    7.5143   47.5954  129.3163 C   0  0  0  0  0  0  0  0  0  0  0  0
    8.0801   46.3707  129.6338 C   0  0  0  0  0  0  0  0  0  0  0  0
    9.4226   46.2915  129.8877 C   0  0  0  0  0  0  0  0  0  0  0  0
   10.2027   47.4225  129.8270 C   0  0  0  0  0  0  0  0  0  0  0  0
    9.6098   48.6130  129.5106 C   0  0  0  0  0  0  0  0  0  0  0  0
    6.7581   52.2834  127.9516 C   0  0  0  0  0  0  0  0  0  0  0  0
    7.0051   52.1329  129.2908 N   0  0  0  0  0  0  0  0  0  0  0  0
    7.4645   51.0716  129.7301 N   0  0  0  0  0  0  0  0  0  0  0  0
    7.7299   50.0524  128.9197 C   0  0  0  0  0  0  0  0  0  0  0  0
    7.2629   50.7338  127.4312 S   0  0  0  0  0  0  0  0  0  0  0  0
    6.0347   54.0177  126.1953 C   0  0  0  0  0  0  0  0  0  0  0  0
    4.9141   54.8017  126.1394 O   0  0  0  0  0  0  0  0  0  0  0  0
    6.1143   53.3904  127.3671 N   0  0  0  0  0  0  0  0  0  0  0  0
    5.2616   53.6902  128.0715 H   0  0  0  0  0  0  0  0  0  0  0  0
    8.1097   54.3296  124.9017 C   0  0  0  0  0  0  0  0  0  0  0  0
    8.8046   54.3251  123.6780 C   0  0  0  0  0  0  0  0  0  0  0  0
    8.1496   54.1611  122.4890 C   0  0  0  0  0  0  0  0  0  0  0  0
    6.7871   54.0021  122.5490 C   0  0  0  0  0  0  0  0  0  0  0  0
    6.0888   54.0007  123.7281 C   0  0  0  0  0  0  0  0  0  0  0  0
    6.7609   54.1684  124.9814 C   0  0  0  0  0  0  0  0  0  0  0  0
    8.3139   54.8172  127.2965 C   0  0  0  0  0  0  0  0  0  0  0  0
    8.8852   54.5268  126.0303 O   0  0  0  0  0  0  0  0  0  0  0  0
    9.9776   45.0519  130.2065 O   0  0  0  0  0  0  0  0  0  0  0  0
    9.3484   44.1660  131.0708 C   0  0  0  0  0  0  0  0  0  0  0  0
    8.9335   42.9484  130.5682 C   0  0  0  0  0  0  0  0  0  0  0  0
    8.3074   42.0659  131.4275 C   0  0  0  0  0  0  0  0  0  0  0  0
    8.1060   42.3998  132.7496 C   0  0  0  0  0  0  0  0  0  0  0  0
    8.5343   43.6308  133.2243 C   0  0  0  0  0  0  0  0  0  0  0  0
    9.1679   44.5420  132.3860 C   0  0  0  0  0  0  0  0  0  0  0  0
    9.6084   45.8033  132.8709 N   0  0  0  0  0  0  0  0  0  0  0  0
   10.9261   46.0682  133.1313 O   0  0  0  0  0  0  0  0  0  0  0  0
    8.7830   46.7107  133.0698 O   0  0  0  0  0  0  0  0  0  0  0  0
    7.4653   41.5085  133.6504 N   0  0  0  0  0  0  0  0  0  0  0  0
    6.1308   41.2824  133.6038 O   0  0  0  0  0  0  0  0  0  0  0  0
    8.1667   40.9298  134.4974 O   0  0  0  0  0  0  0  0  0  0  0  0
 22 23  1  0  0  0
 23 16  1  0  0  0
 16 17  2  0  0  0
 17 18  1  0  0  0
 18 19  2  0  0  0
 19 20  1  0  0  0
 20 21  2  0  0  0
 21 12  1  0  0  0
 12 13  2  0  0  0
 12 14  1  0  0  0
 14  7  1  0  0  0
  7  8  2  0  0  0
  8  9  1  0  0  0
  9 10  2  0  0  0
 10 11  1  0  0  0
 10  1  1  0  0  0
  1  2  2  0  0  0
  2  3  1  0  0  0
  3  4  2  0  0  0
  4 24  1  0  0  0
 24 25  1  0  0  0
 25 26  2  0  0  0
 26 27  1  0  0  0
 27 28  2  0  0  0
 28 29  1  0  0  0
 29 30  2  0  0  0
 30 31  1  0  0  0
 31 32  1  0  0  0
 31 33  2  0  0  0
 28 34  1  0  0  0
 34 35  1  0  0  0
 34 36  2  0  0  0
  4  5  1  0  0  0
  5  6  2  0  0  0
 21 16  1  0  0  0
 11  7  1  0  0  0
  6  1  1  0  0  0
 30 25  1  0  0  0
 14 15  1  0  0  0
M  CHG 1  31   1
M  CHG 1  32  -1
M  CHG 1  34   1
M  CHG 1  35  -1
M  END
> <minimizedAffinity>
7.78067

> <CNNscore>
0.5237770677

> <CNNaffinity>
7.0377869606

> <CNN_VS>
3.6862313747

> <CNNaffinity_variance>
0.7520078421

$$$$
[H]c1c([H])c([H])c(C(=O)N([H])c2nnc(-c3c([H])c([H])c(Oc4c([H])c([H])c([N+](=O)[O-])c([H])c4[N+](=O)[O-])c([H])c3[H])s2)c(OC([H])([H])[H])c1[H]


 36 39  0  0  0  0  0  0  0  0999 V2000
    8.9071   49.7669  130.6103 C   0  0  0  0  0  0  0  0  0  0  0  0
    9.2907   50.1473  131.8673 C   0  0  0  0  0  0  0  0  0  0  0  0
    9.9966   49.2913  132.6977 C   0  0  0  0  0  0  0  0  0  0  0  0
   10.3207   48.0366  132.2574 C   0  0  0  0  0  0  0  0  0  0  0  0
    9.9462   47.6309  130.9978 C   0  0  0  0  0  0  0  0  0  0  0  0
    9.2507   48.5025  130.2068 C   0  0  0  0  0  0  0  0  0  0  0  0
    6.8461   52.4351  128.3306 C   0  0  0  0  0  0  0  0  0  0  0  0
    7.0993   51.1936  127.8093 N   0  0  0  0  0  0  0  0  0  0  0  0
    7.7221   50.3507  128.4666 N   0  0  0  0  0  0  0  0  0  0  0  0
    8.1613   50.6242  129.6907 C   0  0  0  0  0  0  0  0  0  0  0  0
    7.6058   52.2255  129.8491 S   0  0  0  0  0  0  0  0  0  0  0  0
    6.3353   54.0877  126.4270 C   0  0  0  0  0  0  0  0  0  0  0  0
    5.2217   54.8489  126.1950 O   0  0  0  0  0  0  0  0  0  0  0  0
    6.2698   53.5073  127.6236 N   0  0  0  0  0  0  0  0  0  0  0  0
    5.3291   53.8187  128.1991 H   0  0  0  0  0  0  0  0  0  0  0  0
    6.8071   54.2704  124.0144 C   0  0  0  0  0  0  0  0  0  0  0  0
    7.6943   54.5355  122.9548 C   0  0  0  0  0  0  0  0  0  0  0  0
    9.0280   54.7383  123.1779 C   0  0  0  0  0  0  0  0  0  0  0  0
    9.4555   54.6705  124.4810 C   0  0  0  0  0  0  0  0  0  0  0  0
    8.6106   54.4162  125.5295 C   0  0  0  0  0  0  0  0  0  0  0  0
    7.2111   54.2045  125.3122 C   0  0  0  0  0  0  0  0  0  0  0  0
    5.0877   53.9391  122.2973 C   0  0  0  0  0  0  0  0  0  0  0  0
    5.4880   54.0616  123.6533 O   0  0  0  0  0  0  0  0  0  0  0  0
   11.0321   47.1865  133.1044 O   0  0  0  0  0  0  0  0  0  0  0  0
   10.9861   45.8056  132.9668 C   0  0  0  0  0  0  0  0  0  0  0  0
   12.0112   45.1842  132.2810 C   0  0  0  0  0  0  0  0  0  0  0  0
   11.9664   43.8100  132.1437 C   0  0  0  0  0  0  0  0  0  0  0  0
   10.9229   43.0863  132.6796 C   0  0  0  0  0  0  0  0  0  0  0  0
    9.9080   43.7398  133.3630 C   0  0  0  0  0  0  0  0  0  0  0  0
    9.9227   45.1217  133.5195 C   0  0  0  0  0  0  0  0  0  0  0  0
    8.8844   45.7929  134.2204 N   0  0  0  0  0  0  0  0  0  0  0  0
    9.1040   46.4511  135.4006 O   0  0  0  0  0  0  0  0  0  0  0  0
    7.7300   45.7950  133.7600 O   0  0  0  0  0  0  0  0  0  0  0  0
   10.8568   41.6737  132.5509 N   0  0  0  0  0  0  0  0  0  0  0  0
    9.8594   40.9509  133.1138 O   0  0  0  0  0  0  0  0  0  0  0  0
   11.7487   41.1042  131.8994 O   0  0  0  0  0  0  0  0  0  0  0  0
 22 23  1  0  0  0
 23 16  1  0  0  0
 16 17  2  0  0  0
 17 18  1  0  0  0
 18 19  2  0  0  0
 19 20  1  0  0  0
 20 21  2  0  0  0
 21 12  1  0  0  0
 12 13  2  0  0  0
 12 14  1  0  0  0
 14  7  1  0  0  0
  7  8  2  0  0  0
  8  9  1  0  0  0
  9 10  2  0  0  0
 10 11  1  0  0  0
 10  1  1  0  0  0
  1  2  2  0  0  0
  2  3  1  0  0  0
  3  4  2  0  0  0
  4 24  1  0  0  0
 24 25  1  0  0  0
 25 26  2  0  0  0
 26 27  1  0  0  0
 27 28  2  0  0  0
 28 29  1  0  0  0
 29 30  2  0  0  0
 30 31  1  0  0  0
 31 32  1  0  0  0
 31 33  2  0  0  0
 28 34  1  0  0  0
 34 35  1  0  0  0
 34 36  2  0  0  0
  4  5  1  0  0  0
  5  6  2  0  0  0
 21 16  1  0  0  0
 11  7  1  0  0  0
  6  1  1  0  0  0
 30 25  1  0  0  0
 14 15  1  0  0  0
M  CHG 1  31   1
M  CHG 1  32  -1
M  CHG 1  34   1
M  CHG 1  35  -1
M  END
> <minimizedAffinity>
3.87607

> <CNNscore>
0.4943642318

> <CNNaffinity>
6.9183259010

> <CNN_VS>
3.4201729298

> <CNNaffinity_variance>
0.4726119936

$$$$
[H]c1c([H])c([H])c(C(=O)N([H])c2nnc(-c3c([H])c([H])c(Oc4c([H])c([H])c([N+](=O)[O-])c([H])c4[N+](=O)[O-])c([H])c3[H])s2)c(OC([H])([H])[H])c1[H]


 36 39  0  0  0  0  0  0  0  0999 V2000
    8.0696   49.2117  129.9304 C   0  0  0  0  0  0  0  0  0  0  0  0
    8.9866   49.1775  130.9452 C   0  0  0  0  0  0  0  0  0  0  0  0
    9.5366   47.9830  131.3825 C   0  0  0  0  0  0  0  0  0  0  0  0
    9.1591   46.8080  130.7908 C   0  0  0  0  0  0  0  0  0  0  0  0
    8.2388   46.8164  129.7689 C   0  0  0  0  0  0  0  0  0  0  0  0
    7.7176   48.0138  129.3643 C   0  0  0  0  0  0  0  0  0  0  0  0
    6.5357   52.5520  128.1829 C   0  0  0  0  0  0  0  0  0  0  0  0
    6.2188   52.2990  129.4916 N   0  0  0  0  0  0  0  0  0  0  0  0
    6.6625   51.2957  130.0634 N   0  0  0  0  0  0  0  0  0  0  0  0
    7.4549   50.4390  129.4276 C   0  0  0  0  0  0  0  0  0  0  0  0
    7.5286   51.1877  127.9005 S   0  0  0  0  0  0  0  0  0  0  0  0
    6.1356   54.1461  126.2043 C   0  0  0  0  0  0  0  0  0  0  0  0
    5.0153   54.8480  125.8499 O   0  0  0  0  0  0  0  0  0  0  0  0
    5.9812   53.5829  127.4010 N   0  0  0  0  0  0  0  0  0  0  0  0
    4.9753   53.8574  127.8763 H   0  0  0  0  0  0  0  0  0  0  0  0
    6.8246   54.5356  123.8698 C   0  0  0  0  0  0  0  0  0  0  0  0
    7.8198   54.8161  122.9152 C   0  0  0  0  0  0  0  0  0  0  0  0
    9.1435   54.8488  123.2566 C   0  0  0  0  0  0  0  0  0  0  0  0
    9.4509   54.5954  124.5706 C   0  0  0  0  0  0  0  0  0  0  0  0
    8.4997   54.3222  125.5185 C   0  0  0  0  0  0  0  0  0  0  0  0
    7.1094   54.2872  125.1771 C   0  0  0  0  0  0  0  0  0  0  0  0
    5.1819   53.8592  122.1792 C   0  0  0  0  0  0  0  0  0  0  0  0
    5.5265   54.5102  123.3922 O   0  0  0  0  0  0  0  0  0  0  0  0
    9.7220   45.6137  131.2414 O   0  0  0  0  0  0  0  0  0  0  0  0
   10.9513   45.1615  130.7810 C   0  0  0  0  0  0  0  0  0  0  0  0
   11.1669   45.1344  129.4171 C   0  0  0  0  0  0  0  0  0  0  0  0
   12.3901   44.6847  128.9579 C   0  0  0  0  0  0  0  0  0  0  0  0
   13.3635   44.2759  129.8440 C   0  0  0  0  0  0  0  0  0  0  0  0
   13.1164   44.3151  131.2084 C   0  0  0  0  0  0  0  0  0  0  0  0
   11.8962   44.7623  131.7038 C   0  0  0  0  0  0  0  0  0  0  0  0
   11.6415   44.8043  133.1015 N   0  0  0  0  0  0  0  0  0  0  0  0
   11.1390   43.7310  133.7869 O   0  0  0  0  0  0  0  0  0  0  0  0
   11.8790   45.8429  133.7413 O   0  0  0  0  0  0  0  0  0  0  0  0
   14.6276   43.8106  129.3945 N   0  0  0  0  0  0  0  0  0  0  0  0
   15.1766   42.6659  129.8661 O   0  0  0  0  0  0  0  0  0  0  0  0
   15.2304   44.4872  128.5441 O   0  0  0  0  0  0  0  0  0  0  0  0
 22 23  1  0  0  0
 23 16  1  0  0  0
 16 17  2  0  0  0
 17 18  1  0  0  0
 18 19  2  0  0  0
 19 20  1  0  0  0
 20 21  2  0  0  0
 21 12  1  0  0  0
 12 13  2  0  0  0
 12 14  1  0  0  0
 14  7  1  0  0  0
  7  8  2  0  0  0
  8  9  1  0  0  0
  9 10  2  0  0  0
 10 11  1  0  0  0
 10  1  1  0  0  0
  1  2  2  0  0  0
  2  3  1  0  0  0
  3  4  2  0  0  0
  4 24  1  0  0  0
 24 25  1  0  0  0
 25 26  2  0  0  0
 26 27  1  0  0  0
 27 28  2  0  0  0
 28 29  1  0  0  0
 29 30  2  0  0  0
 30 31  1  0  0  0
 31 32  1  0  0  0
 31 33  2  0  0  0
 28 34  1  0  0  0
 34 35  1  0  0  0
 34 36  2  0  0  0
  4  5  1  0  0  0
  5  6  2  0  0  0
 21 16  1  0  0  0
 11  7  1  0  0  0
  6  1  1  0  0  0
 30 25  1  0  0  0
 14 15  1  0  0  0
M  CHG 1  31   1
M  CHG 1  32  -1
M  CHG 1  34   1
M  CHG 1  35  -1
M  END
> <minimizedAffinity>
3.79158

> <CNNscore>
0.4932170808

> <CNNaffinity>
7.1001143456

> <CNN_VS>
3.5018975735

> <CNNaffinity_variance>
0.8132155538

$$$$
[H]c1c([H])c([H])c(C(=O)N([H])c2nnc(-c3c([H])c([H])c(Oc4c([H])c([H])c([N+](=O)[O-])c([H])c4[N+](=O)[O-])c([H])c3[H])s2)c(OC([H])([H])[H])c1[H]


 36 39  0  0  0  0  0  0  0  0999 V2000
    8.4514   49.2590  129.7409 C   0  0  0  0  0  0  0  0  0  0  0  0
    7.9337   47.9986  129.6167 C   0  0  0  0  0  0  0  0  0  0  0  0
    8.6231   46.8859  130.0718 C   0  0  0  0  0  0  0  0  0  0  0  0
    9.8492   47.0436  130.6593 C   0  0  0  0  0  0  0  0  0  0  0  0
   10.3908   48.3004  130.7954 C   0  0  0  0  0  0  0  0  0  0  0  0
    9.6817   49.3746  130.3346 C   0  0  0  0  0  0  0  0  0  0  0  0
    6.7391   52.5697  128.1065 C   0  0  0  0  0  0  0  0  0  0  0  0
    6.4467   52.2624  129.4093 N   0  0  0  0  0  0  0  0  0  0  0  0
    6.9444   51.2657  129.9472 N   0  0  0  0  0  0  0  0  0  0  0  0
    7.7725   50.4687  129.2799 C   0  0  0  0  0  0  0  0  0  0  0  0
    7.7956   51.2654  127.7757 S   0  0  0  0  0  0  0  0  0  0  0  0
    6.1958   54.1522  126.1529 C   0  0  0  0  0  0  0  0  0  0  0  0
    5.0508   54.8485  125.8743 O   0  0  0  0  0  0  0  0  0  0  0  0
    6.1275   53.5947  127.3603 N   0  0  0  0  0  0  0  0  0  0  0  0
    5.1562   53.8683  127.9034 H   0  0  0  0  0  0  0  0  0  0  0  0
    6.7212   54.5717  123.7814 C   0  0  0  0  0  0  0  0  0  0  0  0
    7.6503   54.8482  122.7613 C   0  0  0  0  0  0  0  0  0  0  0  0
    8.9958   54.8442  123.0047 C   0  0  0  0  0  0  0  0  0  0  0  0
    9.3924   54.5581  124.2878 C   0  0  0  0  0  0  0  0  0  0  0  0
    8.5069   54.2881  125.2981 C   0  0  0  0  0  0  0  0  0  0  0  0
    7.0949   54.2913  125.0595 C   0  0  0  0  0  0  0  0  0  0  0  0
    4.9109   53.8115  122.3119 C   0  0  0  0  0  0  0  0  0  0  0  0
    5.3914   54.5852  123.4003 O   0  0  0  0  0  0  0  0  0  0  0  0
   10.5309   45.9142  131.1129 O   0  0  0  0  0  0  0  0  0  0  0  0
    9.8754   44.8638  131.7414 C   0  0  0  0  0  0  0  0  0  0  0  0
    9.4369   45.0511  133.0375 C   0  0  0  0  0  0  0  0  0  0  0  0
    8.7843   44.0065  133.6638 C   0  0  0  0  0  0  0  0  0  0  0  0
    8.5807   42.8128  133.0055 C   0  0  0  0  0  0  0  0  0  0  0  0
    9.0331   42.6557  131.7037 C   0  0  0  0  0  0  0  0  0  0  0  0
    9.6934   43.6870  131.0444 C   0  0  0  0  0  0  0  0  0  0  0  0
   10.1567   43.5284  129.7101 N   0  0  0  0  0  0  0  0  0  0  0  0
    9.4352   42.8580  128.7591 O   0  0  0  0  0  0  0  0  0  0  0  0
   11.2525   44.0100  129.3758 O   0  0  0  0  0  0  0  0  0  0  0  0
    7.9123   41.7263  133.6294 N   0  0  0  0  0  0  0  0  0  0  0  0
    8.4880   41.0095  134.6238 O   0  0  0  0  0  0  0  0  0  0  0  0
    6.7679   41.4418  133.2374 O   0  0  0  0  0  0  0  0  0  0  0  0
 22 23  1  0  0  0
 23 16  1  0  0  0
 16 17  2  0  0  0
 17 18  1  0  0  0
 18 19  2  0  0  0
 19 20  1  0  0  0
 20 21  2  0  0  0
 21 12  1  0  0  0
 12 13  2  0  0  0
 12 14  1  0  0  0
 14  7  1  0  0  0
  7  8  2  0  0  0
  8  9  1  0  0  0
  9 10  2  0  0  0
 10 11  1  0  0  0
 10  1  1  0  0  0
  1  2  2  0  0  0
  2  3  1  0  0  0
  3  4  2  0  0  0
  4 24  1  0  0  0
 24 25  1  0  0  0
 25 26  2  0  0  0
 26 27  1  0  0  0
 27 28  2  0  0  0
 28 29  1  0  0  0
 29 30  2  0  0  0
 30 31  1  0  0  0
 31 32  1  0  0  0
 31 33  2  0  0  0
 28 34  1  0  0  0
 34 35  1  0  0  0
 34 36  2  0  0  0
  4  5  1  0  0  0
  5  6  2  0  0  0
 21 16  1  0  0  0
 11  7  1  0  0  0
  6  1  1  0  0  0
 30 25  1  0  0  0
 14 15  1  0  0  0
M  CHG 1  31   1
M  CHG 1  32  -1
M  CHG 1  34   1
M  CHG 1  35  -1
M  END
> <minimizedAffinity>
3.90268

> <CNNscore>
0.4843722880

> <CNNaffinity>
7.0971441269

> <CNN_VS>
3.4376599789

> <CNNaffinity_variance>
0.7706359625

$$$$
[H]c1c([H])c([H])c(C(=O)N([H])c2nnc(-c3c([H])c([H])c(Oc4c([H])c([H])c([N+](=O)[O-])c([H])c4[N+](=O)[O-])c([H])c3[H])s2)c(OC([H])([H])[H])c1[H]


 36 39  0  0  0  0  0  0  0  0999 V2000
    6.9242   48.1293  129.0698 C   0  0  0  0  0  0  0  0  0  0  0  0
    6.8703   46.7725  129.2376 C   0  0  0  0  0  0  0  0  0  0  0  0
    8.0210   46.0185  129.4048 C   0  0  0  0  0  0  0  0  0  0  0  0
    9.2415   46.6379  129.4030 C   0  0  0  0  0  0  0  0  0  0  0  0
    9.3217   48.0005  129.2359 C   0  0  0  0  0  0  0  0  0  0  0  0
    8.1654   48.7116  129.0737 C   0  0  0  0  0  0  0  0  0  0  0  0
    3.5788   50.2882  128.2266 C   0  0  0  0  0  0  0  0  0  0  0  0
    4.2669   50.5776  129.3755 N   0  0  0  0  0  0  0  0  0  0  0  0
    5.2892   49.9472  129.6718 N   0  0  0  0  0  0  0  0  0  0  0  0
    5.7466   48.9761  128.8883 C   0  0  0  0  0  0  0  0  0  0  0  0
    4.5768   49.0229  127.6524 S   0  0  0  0  0  0  0  0  0  0  0  0
    1.8108   51.6260  126.9225 C   0  0  0  0  0  0  0  0  0  0  0  0
    0.4508   51.4791  126.8761 O   0  0  0  0  0  0  0  0  0  0  0  0
    2.3383   50.8463  127.8643 N   0  0  0  0  0  0  0  0  0  0  0  0
    1.5334   50.2771  128.4485 H   0  0  0  0  0  0  0  0  0  0  0  0
    2.2719   53.9373  126.2002 C   0  0  0  0  0  0  0  0  0  0  0  0
    2.8038   54.8482  125.2686 C   0  0  0  0  0  0  0  0  0  0  0  0
    3.2778   54.4300  124.0562 C   0  0  0  0  0  0  0  0  0  0  0  0
    3.2088   53.0838  123.7949 C   0  0  0  0  0  0  0  0  0  0  0  0
    2.6976   52.1774  124.6865 C   0  0  0  0  0  0  0  0  0  0  0  0
    2.2001   52.5996  125.9612 C   0  0  0  0  0  0  0  0  0  0  0  0
    0.4501   54.3726  127.7832 C   0  0  0  0  0  0  0  0  0  0  0  0
    1.8055   54.4901  127.3795 O   0  0  0  0  0  0  0  0  0  0  0  0
   10.3908   45.8656  129.5730 O   0  0  0  0  0  0  0  0  0  0  0  0
   10.7695   45.3760  130.8158 C   0  0  0  0  0  0  0  0  0  0  0  0
   11.3700   46.2464  131.7041 C   0  0  0  0  0  0  0  0  0  0  0  0
   11.7471   45.7602  132.9413 C   0  0  0  0  0  0  0  0  0  0  0  0
   11.5263   44.4404  133.2720 C   0  0  0  0  0  0  0  0  0  0  0  0
   10.9208   43.5910  132.3578 C   0  0  0  0  0  0  0  0  0  0  0  0
   10.5289   44.0483  131.1041 C   0  0  0  0  0  0  0  0  0  0  0  0
    9.9073   43.1798  130.1664 N   0  0  0  0  0  0  0  0  0  0  0  0
   10.2286   43.1880  128.8356 O   0  0  0  0  0  0  0  0  0  0  0  0
    9.0404   42.3761  130.5499 O   0  0  0  0  0  0  0  0  0  0  0  0
   11.9052   43.9195  134.5376 N   0  0  0  0  0  0  0  0  0  0  0  0
   11.0023   43.7178  135.5266 O   0  0  0  0  0  0  0  0  0  0  0  0
   13.1036   43.6476  134.7222 O   0  0  0  0  0  0  0  0  0  0  0  0
 22 23  1  0  0  0
 23 16  1  0  0  0
 16 17  2  0  0  0
 17 18  1  0  0  0
 18 19  2  0  0  0
 19 20  1  0  0  0
 20 21  2  0  0  0
 21 12  1  0  0  0
 12 13  2  0  0  0
 12 14  1  0  0  0
 14  7  1  0  0  0
  7  8  2  0  0  0
  8  9  1  0  0  0
  9 10  2  0  0  0
 10 11  1  0  0  0
 10  1  1  0  0  0
  1  2  2  0  0  0
  2  3  1  0  0  0
  3  4  2  0  0  0
  4 24  1  0  0  0
 24 25  1  0  0  0
 25 26  2  0  0  0
 26 27  1  0  0  0
 27 28  2  0  0  0
 28 29  1  0  0  0
 29 30  2  0  0  0
 30 31  1  0  0  0
 31 32  1  0  0  0
 31 33  2  0  0  0
 28 34  1  0  0  0
 34 35  1  0  0  0
 34 36  2  0  0  0
  4  5  1  0  0  0
  5  6  2  0  0  0
 21 16  1  0  0  0
 11  7  1  0  0  0
  6  1  1  0  0  0
 30 25  1  0  0  0
 14 15  1  0  0  0
M  CHG 1  31   1
M  CHG 1  32  -1
M  CHG 1  34   1
M  CHG 1  35  -1
M  END
> <minimizedAffinity>
5.67956

> <CNNscore>
0.4787394702

> <CNNaffinity>
6.8602166176

> <CNN_VS>
3.2842564583

> <CNNaffinity_variance>
0.2622222006

$$$$
[H]c1c([H])c([H])c(C(=O)N([H])c2nnc(-c3c([H])c([H])c(Oc4c([H])c([H])c([N+](=O)[O-])c([H])c4[N+](=O)[O-])c([H])c3[H])s2)c(OC([H])([H])[H])c1[H]


 36 39  0  0  0  0  0  0  0  0999 V2000
    8.5830   49.2950  129.7086 C   0  0  0  0  0  0  0  0  0  0  0  0
    9.5687   49.3065  130.6573 C   0  0  0  0  0  0  0  0  0  0  0  0
   10.2185   48.1433  131.0387 C   0  0  0  0  0  0  0  0  0  0  0  0
    9.8719   46.9535  130.4578 C   0  0  0  0  0  0  0  0  0  0  0  0
    8.8840   46.9162  129.5019 C   0  0  0  0  0  0  0  0  0  0  0  0
    8.2650   48.0835  129.1511 C   0  0  0  0  0  0  0  0  0  0  0  0
    6.7685   52.5791  128.1318 C   0  0  0  0  0  0  0  0  0  0  0  0
    6.4485   52.2114  129.4123 N   0  0  0  0  0  0  0  0  0  0  0  0
    6.9755   51.2202  129.9322 N   0  0  0  0  0  0  0  0  0  0  0  0
    7.8623   50.4876  129.2667 C   0  0  0  0  0  0  0  0  0  0  0  0
    7.8966   51.3385  127.7927 S   0  0  0  0  0  0  0  0  0  0  0  0
    6.1644   54.1542  126.1902 C   0  0  0  0  0  0  0  0  0  0  0  0
    5.0106   54.8482  125.9439 O   0  0  0  0  0  0  0  0  0  0  0  0
    6.1333   53.6008  127.4009 N   0  0  0  0  0  0  0  0  0  0  0  0
    5.1785   53.8750  127.9721 H   0  0  0  0  0  0  0  0  0  0  0  0
    6.6132   54.4973  123.7908 C   0  0  0  0  0  0  0  0  0  0  0  0
    7.5035   54.7755  122.7370 C   0  0  0  0  0  0  0  0  0  0  0  0
    8.8527   54.8485  122.9466 C   0  0  0  0  0  0  0  0  0  0  0  0
    9.2926   54.6376  124.2301 C   0  0  0  0  0  0  0  0  0  0  0  0
    8.4454   54.3675  125.2727 C   0  0  0  0  0  0  0  0  0  0  0  0
    7.0299   54.2907  125.0696 C   0  0  0  0  0  0  0  0  0  0  0  0
    4.8355   53.7666  122.2676 C   0  0  0  0  0  0  0  0  0  0  0  0
    5.2760   54.4287  123.4430 O   0  0  0  0  0  0  0  0  0  0  0  0
   10.5354   45.7912  130.8517 O   0  0  0  0  0  0  0  0  0  0  0  0
    9.8935   44.7825  131.5575 C   0  0  0  0  0  0  0  0  0  0  0  0
    9.1742   43.8437  130.8443 C   0  0  0  0  0  0  0  0  0  0  0  0
    8.5351   42.8393  131.5457 C   0  0  0  0  0  0  0  0  0  0  0  0
    8.6182   42.7832  132.9205 C   0  0  0  0  0  0  0  0  0  0  0  0
    9.3486   43.7412  133.6082 C   0  0  0  0  0  0  0  0  0  0  0  0
   10.0039   44.7652  132.9327 C   0  0  0  0  0  0  0  0  0  0  0  0
   10.7536   45.7470  133.6356 N   0  0  0  0  0  0  0  0  0  0  0  0
   10.1614   46.6865  134.4361 O   0  0  0  0  0  0  0  0  0  0  0  0
   11.9920   45.7678  133.5337 O   0  0  0  0  0  0  0  0  0  0  0  0
    7.9700   41.7600  133.6615 N   0  0  0  0  0  0  0  0  0  0  0  0
    6.6747   41.4306  133.4428 O   0  0  0  0  0  0  0  0  0  0  0  0
    8.6274   41.1622  134.5303 O   0  0  0  0  0  0  0  0  0  0  0  0
 22 23  1  0  0  0
 23 16  1  0  0  0
 16 17  2  0  0  0
 17 18  1  0  0  0
 18 19  2  0  0  0
 19 20  1  0  0  0
 20 21  2  0  0  0
 21 12  1  0  0  0
 12 13  2  0  0  0
 12 14  1  0  0  0
 14  7  1  0  0  0
  7  8  2  0  0  0
  8  9  1  0  0  0
  9 10  2  0  0  0
 10 11  1  0  0  0
 10  1  1  0  0  0
  1  2  2  0  0  0
  2  3  1  0  0  0
  3  4  2  0  0  0
  4 24  1  0  0  0
 24 25  1  0  0  0
 25 26  2  0  0  0
 26 27  1  0  0  0
 27 28  2  0  0  0
 28 29  1  0  0  0
 29 30  2  0  0  0
 30 31  1  0  0  0
 31 32  1  0  0  0
 31 33  2  0  0  0
 28 34  1  0  0  0
 34 35  1  0  0  0
 34 36  2  0  0  0
  4  5  1  0  0  0
  5  6  2  0  0  0
 21 16  1  0  0  0
 11  7  1  0  0  0
  6  1  1  0  0  0
 30 25  1  0  0  0
 14 15  1  0  0  0
M  CHG 1  31   1
M  CHG 1  32  -1
M  CHG 1  34   1
M  CHG 1  35  -1
M  END
> <minimizedAffinity>
3.84005

> <CNNscore>
0.4713622630

> <CNNaffinity>
7.0953345299

> <CNN_VS>
3.3444728851

> <CNNaffinity_variance>
0.9990892410

$$$$
[H]c1c([H])c([H])c(C(=O)N([H])c2nnc(-c3c([H])c([H])c(Oc4c([H])c([H])c([N+](=O)[O-])c([H])c4[N+](=O)[O-])c([H])c3[H])s2)c(OC([H])([H])[H])c1[H]


 36 39  0  0  0  0  0  0  0  0999 V2000
    7.8795   48.5970  129.5717 C   0  0  0  0  0  0  0  0  0  0  0  0
    9.1780   48.2562  129.8358 C   0  0  0  0  0  0  0  0  0  0  0  0
    9.5276   46.9639  130.1940 C   0  0  0  0  0  0  0  0  0  0  0  0
    8.5581   46.0024  130.2876 C   0  0  0  0  0  0  0  0  0  0  0  0
    7.2457   46.3204  130.0272 C   0  0  0  0  0  0  0  0  0  0  0  0
    6.9385   47.6057  129.6767 C   0  0  0  0  0  0  0  0  0  0  0  0
    6.7305   52.2266  128.1329 C   0  0  0  0  0  0  0  0  0  0  0  0
    6.7584   52.0446  129.4906 N   0  0  0  0  0  0  0  0  0  0  0  0
    7.1014   50.9580  129.9725 N   0  0  0  0  0  0  0  0  0  0  0  0
    7.4505   49.9416  129.1908 C   0  0  0  0  0  0  0  0  0  0  0  0
    7.2497   50.6656  127.6633 S   0  0  0  0  0  0  0  0  0  0  0  0
    6.3604   54.0180  126.3247 C   0  0  0  0  0  0  0  0  0  0  0  0
    5.2937   54.8488  126.1116 O   0  0  0  0  0  0  0  0  0  0  0  0
    6.2301   53.3689  127.4800 N   0  0  0  0  0  0  0  0  0  0  0  0
    5.2894   53.6925  128.0486 H   0  0  0  0  0  0  0  0  0  0  0  0
    6.9147   54.3992  123.9532 C   0  0  0  0  0  0  0  0  0  0  0  0
    7.8532   54.6789  122.9426 C   0  0  0  0  0  0  0  0  0  0  0  0
    9.1939   54.7180  123.2083 C   0  0  0  0  0  0  0  0  0  0  0  0
    9.5761   54.4718  124.5039 C   0  0  0  0  0  0  0  0  0  0  0  0
    8.6812   54.1996  125.5053 C   0  0  0  0  0  0  0  0  0  0  0  0
    7.2740   54.1579  125.2433 C   0  0  0  0  0  0  0  0  0  0  0  0
    5.1879   53.7504  122.3371 C   0  0  0  0  0  0  0  0  0  0  0  0
    5.5917   54.3669  123.5500 O   0  0  0  0  0  0  0  0  0  0  0  0
    8.9254   44.7059  130.6486 O   0  0  0  0  0  0  0  0  0  0  0  0
    9.7457   44.4520  131.7397 C   0  0  0  0  0  0  0  0  0  0  0  0
    9.1954   44.5395  133.0034 C   0  0  0  0  0  0  0  0  0  0  0  0
   10.0108   44.2868  134.0900 C   0  0  0  0  0  0  0  0  0  0  0  0
   11.3368   43.9570  133.9087 C   0  0  0  0  0  0  0  0  0  0  0  0
   11.8599   43.8772  132.6264 C   0  0  0  0  0  0  0  0  0  0  0  0
   11.0666   44.1253  131.5113 C   0  0  0  0  0  0  0  0  0  0  0  0
   11.6005   44.0429  130.1967 N   0  0  0  0  0  0  0  0  0  0  0  0
   12.9469   44.0678  129.9501 O   0  0  0  0  0  0  0  0  0  0  0  0
   10.8335   43.9424  129.2241 O   0  0  0  0  0  0  0  0  0  0  0  0
   12.1928   43.6930  135.0105 N   0  0  0  0  0  0  0  0  0  0  0  0
   13.5172   43.9729  134.9695 O   0  0  0  0  0  0  0  0  0  0  0  0
   11.6927   43.1909  136.0314 O   0  0  0  0  0  0  0  0  0  0  0  0
 22 23  1  0  0  0
 23 16  1  0  0  0
 16 17  2  0  0  0
 17 18  1  0  0  0
 18 19  2  0  0  0
 19 20  1  0  0  0
 20 21  2  0  0  0
 21 12  1  0  0  0
 12 13  2  0  0  0
 12 14  1  0  0  0
 14  7  1  0  0  0
  7  8  2  0  0  0
  8  9  1  0  0  0
  9 10  2  0  0  0
 10 11  1  0  0  0
 10  1  1  0  0  0
  1  2  2  0  0  0
  2  3  1  0  0  0
  3  4  2  0  0  0
  4 24  1  0  0  0
 24 25  1  0  0  0
 25 26  2  0  0  0
 26 27  1  0  0  0
 27 28  2  0  0  0
 28 29  1  0  0  0
 29 30  2  0  0  0
 30 31  1  0  0  0
 31 32  1  0  0  0
 31 33  2  0  0  0
 28 34  1  0  0  0
 34 35  1  0  0  0
 34 36  2  0  0  0
  4  5  1  0  0  0
  5  6  2  0  0  0
 21 16  1  0  0  0
 11  7  1  0  0  0
  6  1  1  0  0  0
 30 25  1  0  0  0
 14 15  1  0  0  0
M  CHG 1  31   1
M  CHG 1  32  -1
M  CHG 1  34   1
M  CHG 1  35  -1
M  END
> <minimizedAffinity>
0.50045

> <CNNscore>
0.4690491557

> <CNNaffinity>
7.2172288895

> <CNN_VS>
3.3852350712

> <CNNaffinity_variance>
0.6859720945

$$$$
[H]O[C@@]1([H])[C@]([H])(C([H])([H])OP(=O)(O[H])OP(=O)(O[H])O[H])[C@]([H])(O[H])[C@@]([H])(O[H])[C@]([H])(O[H])[C@]([H])(O[H])[C@@]1([H])O[H]


 32 32  0  0  0  0  0  0  0  0999 V2000
    9.9311   48.9841  129.9239 O   0  0  0  0  0  0  0  0  0  0  0  0
    9.1484   49.2582  131.0583 C   0  0  0  0  0  0  0  0  0  0  0  0
    9.9820   49.5794  132.2351 C   0  0  0  0  0  0  0  0  0  0  0  0
    9.6387   50.8236  132.7832 O   0  0  0  0  0  0  0  0  0  0  0  0
   10.0209   48.5928  133.3467 C   0  0  0  0  0  0  0  0  0  0  0  0
    8.9203   48.6640  134.2107 O   0  0  0  0  0  0  0  0  0  0  0  0
   10.3457   47.1893  132.9452 C   0  0  0  0  0  0  0  0  0  0  0  0
   11.3468   47.2046  131.9958 O   0  0  0  0  0  0  0  0  0  0  0  0
    9.1787   46.3828  132.4742 C   0  0  0  0  0  0  0  0  0  0  0  0
    8.1308   46.4504  133.3804 O   0  0  0  0  0  0  0  0  0  0  0  0
    8.7326   46.7932  131.0876 C   0  0  0  0  0  0  0  0  0  0  0  0
    8.1410   48.1714  131.2297 C   0  0  0  0  0  0  0  0  0  0  0  0
    7.1430   48.3254  130.2527 O   0  0  0  0  0  0  0  0  0  0  0  0
    9.4594   48.4348  129.2625 H   0  0  0  0  0  0  0  0  0  0  0  0
    9.8648   50.9033  133.7321 H   0  0  0  0  0  0  0  0  0  0  0  0
    8.4345   49.5122  134.1498 H   0  0  0  0  0  0  0  0  0  0  0  0
   11.5143   46.2661  131.7366 H   0  0  0  0  0  0  0  0  0  0  0  0
    8.5012   46.2029  134.2625 H   0  0  0  0  0  0  0  0  0  0  0  0
    6.2639   48.0126  130.6131 H   0  0  0  0  0  0  0  0  0  0  0  0
    7.6805   45.8491  130.5742 C   0  0  0  0  0  0  0  0  0  0  0  0
    7.3680   44.8345  131.4604 O   0  0  0  0  0  0  0  0  0  0  0  0
    8.4403   43.5474  131.1748 P   0  0  0  0  0  0  0  0  0  0  0  0
    7.9142   42.1279  131.9312 O   0  0  0  0  0  0  0  0  0  0  0  0
    9.8317   43.8577  131.6676 O   0  0  0  0  0  0  0  0  0  0  0  0
    7.1357   42.3261  132.5137 H   0  0  0  0  0  0  0  0  0  0  0  0
    8.4244   43.2675  129.5045 O   0  0  0  0  0  0  0  0  0  0  0  0
    9.9596   43.5031  128.8229 P   0  0  0  0  0  0  0  0  0  0  0  0
   10.2080   45.1719  128.6143 O   0  0  0  0  0  0  0  0  0  0  0  0
   10.0079   42.6981  127.3471 O   0  0  0  0  0  0  0  0  0  0  0  0
   10.9893   42.9703  129.7780 O   0  0  0  0  0  0  0  0  0  0  0  0
    9.9765   45.4167  127.6936 H   0  0  0  0  0  0  0  0  0  0  0  0
   10.8970   42.7407  126.9283 H   0  0  0  0  0  0  0  0  0  0  0  0
  1  2  1  0  0  0
  2  3  1  0  0  0
  3  4  1  0  0  0
  3  5  1  0  0  0
  5  6  1  0  0  0
  5  7  1  0  0  0
  7  8  1  0  0  0
  7  9  1  0  0  0
  9 10  1  0  0  0
  9 11  1  0  0  0
 11 20  1  0  0  0
 20 21  1  0  0  0
 21 22  1  0  0  0
 22 23  1  0  0  0
 22 24  2  0  0  0
 22 26  1  0  0  0
 26 27  1  0  0  0
 27 28  1  0  0  0
 27 29  1  0  0  0
 27 30  2  0  0  0
 11 12  1  0  0  0
 12 13  1  0  0  0
 12  2  1  0  0  0
  1 14  1  0  0  0
  4 15  1  0  0  0
  6 16  1  0  0  0
  8 17  1  0  0  0
 10 18  1  0  0  0
 23 25  1  0  0  0
 28 31  1  0  0  0
 29 32  1  0  0  0
 13 19  1  0  0  0
M  END
> <minimizedAffinity>
-3.56266

> <CNNscore>
0.4741001725

> <CNNaffinity>
5.1730880737

> <CNN_VS>
2.4525618553

> <CNNaffinity_variance>
9.7737255096

$$$$
[H]O[C@@]1([H])[C@]([H])(C([H])([H])OP(=O)(O[H])OP(=O)(O[H])O[H])[C@]([H])(O[H])[C@@]([H])(O[H])[C@]([H])(O[H])[C@]([H])(O[H])[C@@]1([H])O[H]


 32 32  0  0  0  0  0  0  0  0999 V2000
    7.7434   49.2656  131.9661 O   0  0  0  0  0  0  0  0  0  0  0  0
    7.9499   49.5454  130.6047 C   0  0  0  0  0  0  0  0  0  0  0  0
    6.7189   49.3492  129.8116 C   0  0  0  0  0  0  0  0  0  0  0  0
    6.3813   50.5053  129.0935 O   0  0  0  0  0  0  0  0  0  0  0  0
    6.6796   48.2034  128.8650 C   0  0  0  0  0  0  0  0  0  0  0  0
    7.3262   48.4484  127.6466 O   0  0  0  0  0  0  0  0  0  0  0  0
    7.0434   46.8766  129.4514 C   0  0  0  0  0  0  0  0  0  0  0  0
    6.4798   46.7601  130.7054 O   0  0  0  0  0  0  0  0  0  0  0  0
    8.5094   46.5894  129.4988 C   0  0  0  0  0  0  0  0  0  0  0  0
    9.0977   46.8061  128.2614 O   0  0  0  0  0  0  0  0  0  0  0  0
    9.2047   47.3832  130.5835 C   0  0  0  0  0  0  0  0  0  0  0  0
    9.1680   48.8217  130.1376 C   0  0  0  0  0  0  0  0  0  0  0  0
   10.3022   49.4718  130.6526 O   0  0  0  0  0  0  0  0  0  0  0  0
    8.5731   49.0345  132.4350 H   0  0  0  0  0  0  0  0  0  0  0  0
    5.8423   50.3219  128.2973 H   0  0  0  0  0  0  0  0  0  0  0  0
    7.4585   49.4012  127.4631 H   0  0  0  0  0  0  0  0  0  0  0  0
    6.7632   45.8868  131.0702 H   0  0  0  0  0  0  0  0  0  0  0  0
    8.5751   46.2864  127.6032 H   0  0  0  0  0  0  0  0  0  0  0  0
   11.0628   49.3889  130.0082 H   0  0  0  0  0  0  0  0  0  0  0  0
   10.6352   46.9402  130.7225 C   0  0  0  0  0  0  0  0  0  0  0  0
   10.8131   45.9273  131.6470 O   0  0  0  0  0  0  0  0  0  0  0  0
   10.2110   46.4748  133.1389 P   0  0  0  0  0  0  0  0  0  0  0  0
    8.5893   46.0379  133.3464 O   0  0  0  0  0  0  0  0  0  0  0  0
   10.3171   47.9737  133.2695 O   0  0  0  0  0  0  0  0  0  0  0  0
    8.2365   45.6461  132.5057 H   0  0  0  0  0  0  0  0  0  0  0  0
   11.1064   45.6849  134.3401 O   0  0  0  0  0  0  0  0  0  0  0  0
   11.3179   44.0421  133.9749 P   0  0  0  0  0  0  0  0  0  0  0  0
   11.6741   43.2100  135.4140 O   0  0  0  0  0  0  0  0  0  0  0  0
   12.5814   43.9077  132.8732 O   0  0  0  0  0  0  0  0  0  0  0  0
   10.0311   43.5128  133.4088 O   0  0  0  0  0  0  0  0  0  0  0  0
   12.6465   43.1161  135.4964 H   0  0  0  0  0  0  0  0  0  0  0  0
   12.7133   42.9816  132.5686 H   0  0  0  0  0  0  0  0  0  0  0  0
  1  2  1  0  0  0
  2  3  1  0  0  0
  3  4  1  0  0  0
  3  5  1  0  0  0
  5  6  1  0  0  0
  5  7  1  0  0  0
  7  8  1  0  0  0
  7  9  1  0  0  0
  9 10  1  0  0  0
  9 11  1  0  0  0
 11 20  1  0  0  0
 20 21  1  0  0  0
 21 22  1  0  0  0
 22 23  1  0  0  0
 22 24  2  0  0  0
 22 26  1  0  0  0
 26 27  1  0  0  0
 27 28  1  0  0  0
 27 29  1  0  0  0
 27 30  2  0  0  0
 11 12  1  0  0  0
 12 13  1  0  0  0
 12  2  1  0  0  0
  1 14  1  0  0  0
  4 15  1  0  0  0
  6 16  1  0  0  0
  8 17  1  0  0  0
 10 18  1  0  0  0
 23 25  1  0  0  0
 28 31  1  0  0  0
 29 32  1  0  0  0
 13 19  1  0  0  0
M  END
> <minimizedAffinity>
-5.28052

> <CNNscore>
0.4515435696

> <CNNaffinity>
5.3136286736

> <CNN_VS>
2.3993349075

> <CNNaffinity_variance>
7.3228883743

$$$$
[H]O[C@@]1([H])[C@]([H])(C([H])([H])OP(=O)(O[H])OP(=O)(O[H])O[H])[C@]([H])(O[H])[C@@]([H])(O[H])[C@]([H])(O[H])[C@]([H])(O[H])[C@@]1([H])O[H]


 32 32  0  0  0  0  0  0  0  0999 V2000
   11.9640   46.3727  132.2029 O   0  0  0  0  0  0  0  0  0  0  0  0
   11.4694   45.3273  133.0009 C   0  0  0  0  0  0  0  0  0  0  0  0
   12.1395   44.0449  132.7021 C   0  0  0  0  0  0  0  0  0  0  0  0
   12.7038   43.4798  133.8547 O   0  0  0  0  0  0  0  0  0  0  0  0
   11.3423   42.9875  132.0260 C   0  0  0  0  0  0  0  0  0  0  0  0
   10.5143   42.2584  132.8894 O   0  0  0  0  0  0  0  0  0  0  0  0
   10.6357   43.4175  130.7800 C   0  0  0  0  0  0  0  0  0  0  0  0
   11.4647   44.2389  130.0438 O   0  0  0  0  0  0  0  0  0  0  0  0
    9.3064   44.0641  131.0009 C   0  0  0  0  0  0  0  0  0  0  0  0
    8.5078   43.2870  131.8269 O   0  0  0  0  0  0  0  0  0  0  0  0
    9.4465   45.4717  131.5390 C   0  0  0  0  0  0  0  0  0  0  0  0
    9.9787   45.3319  132.9414 C   0  0  0  0  0  0  0  0  0  0  0  0
    9.5019   46.4119  133.7033 O   0  0  0  0  0  0  0  0  0  0  0  0
   11.3268   47.1123  132.1104 H   0  0  0  0  0  0  0  0  0  0  0  0
   12.8048   42.5079  133.7987 H   0  0  0  0  0  0  0  0  0  0  0  0
   10.7740   42.3340  133.8307 H   0  0  0  0  0  0  0  0  0  0  0  0
   10.9562   44.5232  129.2458 H   0  0  0  0  0  0  0  0  0  0  0  0
    8.4891   42.3806  131.4336 H   0  0  0  0  0  0  0  0  0  0  0  0
    8.6211   46.1750  134.1139 H   0  0  0  0  0  0  0  0  0  0  0  0
    8.1066   46.1535  131.5793 C   0  0  0  0  0  0  0  0  0  0  0  0
    8.1069   47.4084  130.9984 O   0  0  0  0  0  0  0  0  0  0  0  0
    7.4415   47.2597  129.4417 P   0  0  0  0  0  0  0  0  0  0  0  0
    5.7622   47.0603  129.5062 O   0  0  0  0  0  0  0  0  0  0  0  0
    8.0278   46.0899  128.6914 O   0  0  0  0  0  0  0  0  0  0  0  0
    5.4739   46.9397  130.4480 H   0  0  0  0  0  0  0  0  0  0  0  0
    7.7481   48.7219  128.6440 O   0  0  0  0  0  0  0  0  0  0  0  0
    7.2214   50.0489  129.5597 P   0  0  0  0  0  0  0  0  0  0  0  0
    7.1336   51.4075  128.5416 O   0  0  0  0  0  0  0  0  0  0  0  0
    8.3249   50.2992  130.8039 O   0  0  0  0  0  0  0  0  0  0  0  0
    5.8492   49.7446  130.0896 O   0  0  0  0  0  0  0  0  0  0  0  0
    7.9617   51.9253  128.6277 H   0  0  0  0  0  0  0  0  0  0  0  0
    8.0421   51.0173  131.4139 H   0  0  0  0  0  0  0  0  0  0  0  0
  1  2  1  0  0  0
  2  3  1  0  0  0
  3  4  1  0  0  0
  3  5  1  0  0  0
  5  6  1  0  0  0
  5  7  1  0  0  0
  7  8  1  0  0  0
  7  9  1  0  0  0
  9 10  1  0  0  0
  9 11  1  0  0  0
 11 20  1  0  0  0
 20 21  1  0  0  0
 21 22  1  0  0  0
 22 23  1  0  0  0
 22 24  2  0  0  0
 22 26  1  0  0  0
 26 27  1  0  0  0
 27 28  1  0  0  0
 27 29  1  0  0  0
 27 30  2  0  0  0
 11 12  1  0  0  0
 12 13  1  0  0  0
 12  2  1  0  0  0
  1 14  1  0  0  0
  4 15  1  0  0  0
  6 16  1  0  0  0
  8 17  1  0  0  0
 10 18  1  0  0  0
 23 25  1  0  0  0
 28 31  1  0  0  0
 29 32  1  0  0  0
 13 19  1  0  0  0
M  END
> <minimizedAffinity>
-8.06009

> <CNNscore>
0.4494813383

> <CNNaffinity>
5.2886171341

> <CNN_VS>
2.3771348000

> <CNNaffinity_variance>
7.1757421494

$$$$
[H]O[C@@]1([H])[C@]([H])(C([H])([H])OP(=O)(O[H])OP(=O)(O[H])O[H])[C@]([H])(O[H])[C@@]([H])(O[H])[C@]([H])(O[H])[C@]([H])(O[H])[C@@]1([H])O[H]


 32 32  0  0  0  0  0  0  0  0999 V2000
    9.3194   42.7896  133.4505 O   0  0  0  0  0  0  0  0  0  0  0  0
   10.2968   43.1944  132.5258 C   0  0  0  0  0  0  0  0  0  0  0  0
   11.5584   43.5765  133.1931 C   0  0  0  0  0  0  0  0  0  0  0  0
   12.6458   42.8470  132.6916 O   0  0  0  0  0  0  0  0  0  0  0  0
   11.9385   45.0139  133.1858 C   0  0  0  0  0  0  0  0  0  0  0  0
   12.5377   45.4388  131.9929 O   0  0  0  0  0  0  0  0  0  0  0  0
   10.8818   45.9573  133.6653 C   0  0  0  0  0  0  0  0  0  0  0  0
   10.2459   45.4134  134.7624 O   0  0  0  0  0  0  0  0  0  0  0  0
    9.8895   46.3721  132.6273 C   0  0  0  0  0  0  0  0  0  0  0  0
   10.5289   46.8233  131.4820 O   0  0  0  0  0  0  0  0  0  0  0  0
    8.9102   45.2633  132.3084 C   0  0  0  0  0  0  0  0  0  0  0  0
    9.7023   44.1981  131.5960 C   0  0  0  0  0  0  0  0  0  0  0  0
    8.8436   43.5323  130.7051 O   0  0  0  0  0  0  0  0  0  0  0  0
    8.4074   42.8818  133.1019 H   0  0  0  0  0  0  0  0  0  0  0  0
   13.5030   43.3061  132.8024 H   0  0  0  0  0  0  0  0  0  0  0  0
   12.8861   44.7015  131.4504 H   0  0  0  0  0  0  0  0  0  0  0  0
    9.5401   46.0497  135.0328 H   0  0  0  0  0  0  0  0  0  0  0  0
   11.1713   47.5169  131.7695 H   0  0  0  0  0  0  0  0  0  0  0  0
    8.8476   43.9964  129.8190 H   0  0  0  0  0  0  0  0  0  0  0  0
    7.8234   45.7686  131.4000 C   0  0  0  0  0  0  0  0  0  0  0  0
    7.9431   47.1104  131.0876 O   0  0  0  0  0  0  0  0  0  0  0  0
    8.0131   47.2448  129.3949 P   0  0  0  0  0  0  0  0  0  0  0  0
    6.5352   46.8299  128.6824 O   0  0  0  0  0  0  0  0  0  0  0  0
    9.0855   46.3620  128.8069 O   0  0  0  0  0  0  0  0  0  0  0  0
    5.9227   46.4600  129.3699 H   0  0  0  0  0  0  0  0  0  0  0  0
    8.3003   48.8783  129.0518 O   0  0  0  0  0  0  0  0  0  0  0  0
    7.0054   49.8528  129.5522 P   0  0  0  0  0  0  0  0  0  0  0  0
    5.5530   49.0337  129.2208 O   0  0  0  0  0  0  0  0  0  0  0  0
    7.0840   51.3047  128.7071 O   0  0  0  0  0  0  0  0  0  0  0  0
    7.1190   50.0681  131.0344 O   0  0  0  0  0  0  0  0  0  0  0  0
    5.1999   49.3446  128.3607 H   0  0  0  0  0  0  0  0  0  0  0  0
    6.3957   51.9438  128.9996 H   0  0  0  0  0  0  0  0  0  0  0  0
  1  2  1  0  0  0
  2  3  1  0  0  0
  3  4  1  0  0  0
  3  5  1  0  0  0
  5  6  1  0  0  0
  5  7  1  0  0  0
  7  8  1  0  0  0
  7  9  1  0  0  0
  9 10  1  0  0  0
  9 11  1  0  0  0
 11 20  1  0  0  0
 20 21  1  0  0  0
 21 22  1  0  0  0
 22 23  1  0  0  0
 22 24  2  0  0  0
 22 26  1  0  0  0
 26 27  1  0  0  0
 27 28  1  0  0  0
 27 29  1  0  0  0
 27 30  2  0  0  0
 11 12  1  0  0  0
 12 13  1  0  0  0
 12  2  1  0  0  0
  1 14  1  0  0  0
  4 15  1  0  0  0
  6 16  1  0  0  0
  8 17  1  0  0  0
 10 18  1  0  0  0
 23 25  1  0  0  0
 28 31  1  0  0  0
 29 32  1  0  0  0
 13 19  1  0  0  0
M  END
> <minimizedAffinity>
-8.54188

> <CNNscore>
0.4490236938

> <CNNaffinity>
5.2897338867

> <CNN_VS>
2.3752157688

> <CNNaffinity_variance>
6.6528344154

$$$$
[H]O[C@@]1([H])[C@]([H])(C([H])([H])OP(=O)(O[H])OP(=O)(O[H])O[H])[C@]([H])(O[H])[C@@]([H])(O[H])[C@]([H])(O[H])[C@]([H])(O[H])[C@@]1([H])O[H]


 32 32  0  0  0  0  0  0  0  0999 V2000
   10.6463   48.1554  131.2854 O   0  0  0  0  0  0  0  0  0  0  0  0
    9.6917   48.5366  130.3275 C   0  0  0  0  0  0  0  0  0  0  0  0
    8.4197   48.9502  130.9553 C   0  0  0  0  0  0  0  0  0  0  0  0
    8.0463   50.2414  130.5559 O   0  0  0  0  0  0  0  0  0  0  0  0
    7.2389   48.0645  130.7773 C   0  0  0  0  0  0  0  0  0  0  0  0
    6.5874   48.2235  129.5473 O   0  0  0  0  0  0  0  0  0  0  0  0
    7.4584   46.6276  131.1292 C   0  0  0  0  0  0  0  0  0  0  0  0
    8.2182   46.5484  132.2782 O   0  0  0  0  0  0  0  0  0  0  0  0
    8.0543   45.7961  130.0395 C   0  0  0  0  0  0  0  0  0  0  0  0
    7.3520   45.9546  128.8539 O   0  0  0  0  0  0  0  0  0  0  0  0
    9.5268   46.0885  129.8483 C   0  0  0  0  0  0  0  0  0  0  0  0
    9.6059   47.4803  129.2775 C   0  0  0  0  0  0  0  0  0  0  0  0
   10.7503   47.5594  128.4660 O   0  0  0  0  0  0  0  0  0  0  0  0
   11.3306   47.5555  130.9198 H   0  0  0  0  0  0  0  0  0  0  0  0
    7.0827   50.4015  130.6181 H   0  0  0  0  0  0  0  0  0  0  0  0
    6.8027   49.0685  129.1014 H   0  0  0  0  0  0  0  0  0  0  0  0
    8.3644   45.5889  132.4630 H   0  0  0  0  0  0  0  0  0  0  0  0
    6.4015   45.7812  129.0611 H   0  0  0  0  0  0  0  0  0  0  0  0
   10.5222   47.2893  127.5303 H   0  0  0  0  0  0  0  0  0  0  0  0
   10.1329   45.1149  128.8754 C   0  0  0  0  0  0  0  0  0  0  0  0
   11.5146   45.1580  128.8380 O   0  0  0  0  0  0  0  0  0  0  0  0
   12.0942   44.4800  130.2845 P   0  0  0  0  0  0  0  0  0  0  0  0
   11.8944   45.5426  131.5864 O   0  0  0  0  0  0  0  0  0  0  0  0
   13.5559   44.1203  130.1881 O   0  0  0  0  0  0  0  0  0  0  0  0
   11.5874   46.4261  131.2550 H   0  0  0  0  0  0  0  0  0  0  0  0
   11.1410   43.1146  130.5937 O   0  0  0  0  0  0  0  0  0  0  0  0
   11.3233   42.5819  132.1937 P   0  0  0  0  0  0  0  0  0  0  0  0
   12.8744   43.0190  132.7353 O   0  0  0  0  0  0  0  0  0  0  0  0
   11.1261   40.9119  132.2166 O   0  0  0  0  0  0  0  0  0  0  0  0
   10.2952   43.2726  133.0435 O   0  0  0  0  0  0  0  0  0  0  0  0
   13.4801   42.2570  132.6187 H   0  0  0  0  0  0  0  0  0  0  0  0
   11.1551   40.5458  133.1292 H   0  0  0  0  0  0  0  0  0  0  0  0
  1  2  1  0  0  0
  2  3  1  0  0  0
  3  4  1  0  0  0
  3  5  1  0  0  0
  5  6  1  0  0  0
  5  7  1  0  0  0
  7  8  1  0  0  0
  7  9  1  0  0  0
  9 10  1  0  0  0
  9 11  1  0  0  0
 11 20  1  0  0  0
 20 21  1  0  0  0
 21 22  1  0  0  0
 22 23  1  0  0  0
 22 24  2  0  0  0
 22 26  1  0  0  0
 26 27  1  0  0  0
 27 28  1  0  0  0
 27 29  1  0  0  0
 27 30  2  0  0  0
 11 12  1  0  0  0
 12 13  1  0  0  0
 12  2  1  0  0  0
  1 14  1  0  0  0
  4 15  1  0  0  0
  6 16  1  0  0  0
  8 17  1  0  0  0
 10 18  1  0  0  0
 23 25  1  0  0  0
 28 31  1  0  0  0
 29 32  1  0  0  0
 13 19  1  0  0  0
M  END
> <minimizedAffinity>
-4.53664

> <CNNscore>
0.4457828999

> <CNNaffinity>
5.0516743660

> <CNN_VS>
2.2519500256

> <CNNaffinity_variance>
6.6393523216

$$$$
[H]O[C@@]1([H])[C@]([H])(C([H])([H])OP(=O)(O[H])OP(=O)(O[H])O[H])[C@]([H])(O[H])[C@@]([H])(O[H])[C@]([H])(O[H])[C@]([H])(O[H])[C@@]1([H])O[H]


 32 32  0  0  0  0  0  0  0  0999 V2000
    7.4376   49.7933  131.7853 O   0  0  0  0  0  0  0  0  0  0  0  0
    7.9566   49.8679  130.4817 C   0  0  0  0  0  0  0  0  0  0  0  0
    6.8851   49.9732  129.4699 C   0  0  0  0  0  0  0  0  0  0  0  0
    7.0553   51.1035  128.6578 O   0  0  0  0  0  0  0  0  0  0  0  0
    6.6586   48.8066  128.5765 C   0  0  0  0  0  0  0  0  0  0  0  0
    7.5529   48.7306  127.5007 O   0  0  0  0  0  0  0  0  0  0  0  0
    6.4829   47.4937  129.2709 C   0  0  0  0  0  0  0  0  0  0  0  0
    5.6999   47.6705  130.3931 O   0  0  0  0  0  0  0  0  0  0  0  0
    7.7547   46.7884  129.6158 C   0  0  0  0  0  0  0  0  0  0  0  0
    8.5890   46.7011  128.5110 O   0  0  0  0  0  0  0  0  0  0  0  0
    8.4603   47.4382  130.7863 C   0  0  0  0  0  0  0  0  0  0  0  0
    8.9515   48.7729  130.2897 C   0  0  0  0  0  0  0  0  0  0  0  0
   10.1225   49.1012  130.9934 O   0  0  0  0  0  0  0  0  0  0  0  0
    8.0583   49.3710  132.4162 H   0  0  0  0  0  0  0  0  0  0  0  0
    6.6348   51.0143  127.7785 H   0  0  0  0  0  0  0  0  0  0  0  0
    8.0049   49.5786  127.3121 H   0  0  0  0  0  0  0  0  0  0  0  0
    5.6290   46.7912  130.8381 H   0  0  0  0  0  0  0  0  0  0  0  0
    8.0549   46.3007  127.7824 H   0  0  0  0  0  0  0  0  0  0  0  0
   10.9204   48.7343  130.5145 H   0  0  0  0  0  0  0  0  0  0  0  0
    9.6343   46.6041  131.2197 C   0  0  0  0  0  0  0  0  0  0  0  0
    9.3638   45.2486  131.2631 O   0  0  0  0  0  0  0  0  0  0  0  0
   10.8482   44.4257  131.3487 P   0  0  0  0  0  0  0  0  0  0  0  0
   11.1081   43.7829  132.8924 O   0  0  0  0  0  0  0  0  0  0  0  0
   12.0089   45.3278  131.0109 O   0  0  0  0  0  0  0  0  0  0  0  0
   10.4050   44.1059  133.5138 H   0  0  0  0  0  0  0  0  0  0  0  0
   10.7420   43.1249  130.2693 O   0  0  0  0  0  0  0  0  0  0  0  0
    9.9252   43.5642  128.8492 P   0  0  0  0  0  0  0  0  0  0  0  0
    8.2927   43.8469  129.2301 O   0  0  0  0  0  0  0  0  0  0  0  0
   10.0764   42.3043  127.7455 O   0  0  0  0  0  0  0  0  0  0  0  0
   10.5331   44.8343  128.3261 O   0  0  0  0  0  0  0  0  0  0  0  0
    7.7759   43.0348  129.0439 H   0  0  0  0  0  0  0  0  0  0  0  0
    9.6784   42.5234  126.8730 H   0  0  0  0  0  0  0  0  0  0  0  0
  1  2  1  0  0  0
  2  3  1  0  0  0
  3  4  1  0  0  0
  3  5  1  0  0  0
  5  6  1  0  0  0
  5  7  1  0  0  0
  7  8  1  0  0  0
  7  9  1  0  0  0
  9 10  1  0  0  0
  9 11  1  0  0  0
 11 20  1  0  0  0
 20 21  1  0  0  0
 21 22  1  0  0  0
 22 23  1  0  0  0
 22 24  2  0  0  0
 22 26  1  0  0  0
 26 27  1  0  0  0
 27 28  1  0  0  0
 27 29  1  0  0  0
 27 30  2  0  0  0
 11 12  1  0  0  0
 12 13  1  0  0  0
 12  2  1  0  0  0
  1 14  1  0  0  0
  4 15  1  0  0  0
  6 16  1  0  0  0
  8 17  1  0  0  0
 10 18  1  0  0  0
 23 25  1  0  0  0
 28 31  1  0  0  0
 29 32  1  0  0  0
 13 19  1  0  0  0
M  END
> <minimizedAffinity>
-4.63507

> <CNNscore>
0.4403971434

> <CNNaffinity>
4.9658517838

> <CNN_VS>
2.1869468689

> <CNNaffinity_variance>
4.6255249977

$$$$
[H]O[C@@]1([H])[C@]([H])(C([H])([H])OP(=O)(O[H])OP(=O)(O[H])O[H])[C@]([H])(O[H])[C@@]([H])(O[H])[C@]([H])(O[H])[C@]([H])(O[H])[C@@]1([H])O[H]


 32 32  0  0  0  0  0  0  0  0999 V2000
   11.2843   43.4605  131.0766 O   0  0  0  0  0  0  0  0  0  0  0  0
   10.1453   43.0859  130.3439 C   0  0  0  0  0  0  0  0  0  0  0  0
   10.2987   43.3792  128.9039 C   0  0  0  0  0  0  0  0  0  0  0  0
   10.0975   42.2325  128.1223 O   0  0  0  0  0  0  0  0  0  0  0  0
    9.4687   44.4693  128.3265 C   0  0  0  0  0  0  0  0  0  0  0  0
    8.1555   44.0863  128.0237 O   0  0  0  0  0  0  0  0  0  0  0  0
    9.5330   45.7752  129.0525 C   0  0  0  0  0  0  0  0  0  0  0  0
   10.8354   46.0230  129.4346 O   0  0  0  0  0  0  0  0  0  0  0  0
    8.6052   45.8942  130.2182 C   0  0  0  0  0  0  0  0  0  0  0  0
    7.3113   45.5450  129.8602 O   0  0  0  0  0  0  0  0  0  0  0  0
    9.0836   45.0854  131.4045 C   0  0  0  0  0  0  0  0  0  0  0  0
    8.9318   43.6388  131.0127 C   0  0  0  0  0  0  0  0  0  0  0  0
    8.6797   42.8914  132.1755 O   0  0  0  0  0  0  0  0  0  0  0  0
   11.0890   43.6198  132.0243 H   0  0  0  0  0  0  0  0  0  0  0  0
    9.8105   42.4334  127.2085 H   0  0  0  0  0  0  0  0  0  0  0  0
    8.0410   43.1160  127.9558 H   0  0  0  0  0  0  0  0  0  0  0  0
   10.8336   46.8764  129.9324 H   0  0  0  0  0  0  0  0  0  0  0  0
    7.0806   46.0850  129.0655 H   0  0  0  0  0  0  0  0  0  0  0  0
    7.6950   42.8515  132.3466 H   0  0  0  0  0  0  0  0  0  0  0  0
    8.2304   45.3680  132.6103 C   0  0  0  0  0  0  0  0  0  0  0  0
    8.9573   45.5387  133.7744 O   0  0  0  0  0  0  0  0  0  0  0  0
    9.5828   47.1188  133.7686 P   0  0  0  0  0  0  0  0  0  0  0  0
   11.0171   47.2168  134.6613 O   0  0  0  0  0  0  0  0  0  0  0  0
    8.6016   48.1116  134.3402 O   0  0  0  0  0  0  0  0  0  0  0  0
   11.1763   46.3605  135.1368 H   0  0  0  0  0  0  0  0  0  0  0  0
    9.9621   47.4820  132.1584 O   0  0  0  0  0  0  0  0  0  0  0  0
    9.5319   49.0749  131.7653 P   0  0  0  0  0  0  0  0  0  0  0  0
   10.3612   49.5254  130.3513 O   0  0  0  0  0  0  0  0  0  0  0  0
    9.9574   50.0670  133.0548 O   0  0  0  0  0  0  0  0  0  0  0  0
    8.0539   49.1150  131.5000 O   0  0  0  0  0  0  0  0  0  0  0  0
   11.1745   50.0134  130.5997 H   0  0  0  0  0  0  0  0  0  0  0  0
    9.6740   50.9989  132.9173 H   0  0  0  0  0  0  0  0  0  0  0  0
  1  2  1  0  0  0
  2  3  1  0  0  0
  3  4  1  0  0  0
  3  5  1  0  0  0
  5  6  1  0  0  0
  5  7  1  0  0  0
  7  8  1  0  0  0
  7  9  1  0  0  0
  9 10  1  0  0  0
  9 11  1  0  0  0
 11 20  1  0  0  0
 20 21  1  0  0  0
 21 22  1  0  0  0
 22 23  1  0  0  0
 22 24  2  0  0  0
 22 26  1  0  0  0
 26 27  1  0  0  0
 27 28  1  0  0  0
 27 29  1  0  0  0
 27 30  2  0  0  0
 11 12  1  0  0  0
 12 13  1  0  0  0
 12  2  1  0  0  0
  1 14  1  0  0  0
  4 15  1  0  0  0
  6 16  1  0  0  0
  8 17  1  0  0  0
 10 18  1  0  0  0
 23 25  1  0  0  0
 28 31  1  0  0  0
 29 32  1  0  0  0
 13 19  1  0  0  0
M  END
> <minimizedAffinity>
-4.56945

> <CNNscore>
0.4388011098

> <CNNaffinity>
4.9602251053

> <CNN_VS>
2.1765522957

> <CNNaffinity_variance>
7.0099577904

$$$$
[H]O[C@@]1([H])[C@]([H])(C([H])([H])OP(=O)(O[H])OP(=O)(O[H])O[H])[C@]([H])(O[H])[C@@]([H])(O[H])[C@]([H])(O[H])[C@]([H])(O[H])[C@@]1([H])O[H]


 32 32  0  0  0  0  0  0  0  0999 V2000
   12.2996   43.8509  130.0587 O   0  0  0  0  0  0  0  0  0  0  0  0
   11.4858   43.8299  131.2040 C   0  0  0  0  0  0  0  0  0  0  0  0
   10.7296   42.5656  131.3163 C   0  0  0  0  0  0  0  0  0  0  0  0
   10.9640   41.9348  132.5464 O   0  0  0  0  0  0  0  0  0  0  0  0
    9.2581   42.6176  131.1099 C   0  0  0  0  0  0  0  0  0  0  0  0
    8.5402   43.0500  132.2326 O   0  0  0  0  0  0  0  0  0  0  0  0
    8.8122   43.2886  129.8499 C   0  0  0  0  0  0  0  0  0  0  0  0
    9.6454   42.9180  128.8143 O   0  0  0  0  0  0  0  0  0  0  0  0
    8.6990   44.7765  129.9346 C   0  0  0  0  0  0  0  0  0  0  0  0
    7.9462   45.1548  131.0366 O   0  0  0  0  0  0  0  0  0  0  0  0
   10.0562   45.4459  129.9411 C   0  0  0  0  0  0  0  0  0  0  0  0
   10.6909   45.0910  131.2605 C   0  0  0  0  0  0  0  0  0  0  0  0
   11.5432   46.1429  131.6365 O   0  0  0  0  0  0  0  0  0  0  0  0
   12.5167   44.7611  129.7654 H   0  0  0  0  0  0  0  0  0  0  0  0
   10.2351   41.3426  132.8220 H   0  0  0  0  0  0  0  0  0  0  0  0
    9.0482   42.9818  133.0670 H   0  0  0  0  0  0  0  0  0  0  0  0
    9.3375   43.3999  128.0086 H   0  0  0  0  0  0  0  0  0  0  0  0
    7.0941   44.6574  130.9832 H   0  0  0  0  0  0  0  0  0  0  0  0
   11.0335   46.8187  132.1696 H   0  0  0  0  0  0  0  0  0  0  0  0
    9.9050   46.9391  129.8456 C   0  0  0  0  0  0  0  0  0  0  0  0
    9.3689   47.5146  130.9831 O   0  0  0  0  0  0  0  0  0  0  0  0
    8.4986   48.8940  130.5059 P   0  0  0  0  0  0  0  0  0  0  0  0
    9.5016   50.2541  130.4146 O   0  0  0  0  0  0  0  0  0  0  0  0
    7.3706   49.2018  131.4588 O   0  0  0  0  0  0  0  0  0  0  0  0
   10.3990   50.0349  130.7770 H   0  0  0  0  0  0  0  0  0  0  0  0
    7.9212   48.5843  128.9442 O   0  0  0  0  0  0  0  0  0  0  0  0
    6.2631   48.2276  128.9567 P   0  0  0  0  0  0  0  0  0  0  0  0
    5.4239   49.5799  129.5546 O   0  0  0  0  0  0  0  0  0  0  0  0
    6.0221   46.8858  129.9415 O   0  0  0  0  0  0  0  0  0  0  0  0
    5.8241   47.9640  127.5446 O   0  0  0  0  0  0  0  0  0  0  0  0
    5.2591   49.4554  130.5130 H   0  0  0  0  0  0  0  0  0  0  0  0
    5.0853   46.5857  129.9398 H   0  0  0  0  0  0  0  0  0  0  0  0
  1  2  1  0  0  0
  2  3  1  0  0  0
  3  4  1  0  0  0
  3  5  1  0  0  0
  5  6  1  0  0  0
  5  7  1  0  0  0
  7  8  1  0  0  0
  7  9  1  0  0  0
  9 10  1  0  0  0
  9 11  1  0  0  0
 11 20  1  0  0  0
 20 21  1  0  0  0
 21 22  1  0  0  0
 22 23  1  0  0  0
 22 24  2  0  0  0
 22 26  1  0  0  0
 26 27  1  0  0  0
 27 28  1  0  0  0
 27 29  1  0  0  0
 27 30  2  0  0  0
 11 12  1  0  0  0
 12 13  1  0  0  0
 12  2  1  0  0  0
  1 14  1  0  0  0
  4 15  1  0  0  0
  6 16  1  0  0  0
  8 17  1  0  0  0
 10 18  1  0  0  0
 23 25  1  0  0  0
 28 31  1  0  0  0
 29 32  1  0  0  0
 13 19  1  0  0  0
M  END
> <minimizedAffinity>
-6.41116

> <CNNscore>
0.4377241433

> <CNNaffinity>
4.9949822426

> <CNN_VS>
2.1864242554

> <CNNaffinity_variance>
5.9388298988

$$$$
[H]O[C@@]1([H])[C@]([H])(C([H])([H])OP(=O)(O[H])OP(=O)(O[H])O[H])[C@]([H])(O[H])[C@@]([H])(O[H])[C@]([H])(O[H])[C@]([H])(O[H])[C@@]1([H])O[H]


 32 32  0  0  0  0  0  0  0  0999 V2000
   11.5403   42.8893  131.0019 O   0  0  0  0  0  0  0  0  0  0  0  0
   10.1665   43.1806  131.0478 C   0  0  0  0  0  0  0  0  0  0  0  0
    9.4885   42.8278  129.7833 C   0  0  0  0  0  0  0  0  0  0  0  0
    8.4143   41.9539  130.0035 O   0  0  0  0  0  0  0  0  0  0  0  0
    8.9968   43.9393  128.9270 C   0  0  0  0  0  0  0  0  0  0  0  0
    7.7698   44.4758  129.3386 O   0  0  0  0  0  0  0  0  0  0  0  0
   10.0066   44.9951  128.6071 C   0  0  0  0  0  0  0  0  0  0  0  0
   11.2226   44.3999  128.3409 O   0  0  0  0  0  0  0  0  0  0  0  0
   10.1525   46.0620  129.6437 C   0  0  0  0  0  0  0  0  0  0  0  0
    8.9174   46.5909  129.9885 O   0  0  0  0  0  0  0  0  0  0  0  0
   10.8966   45.5646  130.8640 C   0  0  0  0  0  0  0  0  0  0  0  0
    9.9804   44.5771  131.5385 C   0  0  0  0  0  0  0  0  0  0  0  0
   10.2402   44.6068  132.9190 O   0  0  0  0  0  0  0  0  0  0  0  0
   12.0614   43.4211  131.6402 H   0  0  0  0  0  0  0  0  0  0  0  0
    7.7300   41.9994  129.3051 H   0  0  0  0  0  0  0  0  0  0  0  0
    7.2681   43.8824  129.9347 H   0  0  0  0  0  0  0  0  0  0  0  0
   11.8675   45.1267  128.1616 H   0  0  0  0  0  0  0  0  0  0  0  0
    8.4790   46.8623  129.1456 H   0  0  0  0  0  0  0  0  0  0  0  0
    9.6654   45.2979  133.3578 H   0  0  0  0  0  0  0  0  0  0  0  0
   11.1823   46.7031  131.8042 C   0  0  0  0  0  0  0  0  0  0  0  0
   10.8610   47.9436  131.2844 O   0  0  0  0  0  0  0  0  0  0  0  0
    9.7038   48.6514  132.3082 P   0  0  0  0  0  0  0  0  0  0  0  0
    8.8356   49.8651  131.5102 O   0  0  0  0  0  0  0  0  0  0  0  0
   10.3374   49.2538  133.5373 O   0  0  0  0  0  0  0  0  0  0  0  0
    9.2391   50.0374  130.6201 H   0  0  0  0  0  0  0  0  0  0  0  0
    8.6064   47.4273  132.7154 O   0  0  0  0  0  0  0  0  0  0  0  0
    8.7790   46.9551  134.3353 P   0  0  0  0  0  0  0  0  0  0  0  0
    7.9444   45.4917  134.5635 O   0  0  0  0  0  0  0  0  0  0  0  0
    8.1408   48.1701  135.3072 O   0  0  0  0  0  0  0  0  0  0  0  0
   10.2389   46.7344  134.6118 O   0  0  0  0  0  0  0  0  0  0  0  0
    7.0513   45.6853  134.9187 H   0  0  0  0  0  0  0  0  0  0  0  0
    8.2693   47.9870  136.2652 H   0  0  0  0  0  0  0  0  0  0  0  0
  1  2  1  0  0  0
  2  3  1  0  0  0
  3  4  1  0  0  0
  3  5  1  0  0  0
  5  6  1  0  0  0
  5  7  1  0  0  0
  7  8  1  0  0  0
  7  9  1  0  0  0
  9 10  1  0  0  0
  9 11  1  0  0  0
 11 20  1  0  0  0
 20 21  1  0  0  0
 21 22  1  0  0  0
 22 23  1  0  0  0
 22 24  2  0  0  0
 22 26  1  0  0  0
 26 27  1  0  0  0
 27 28  1  0  0  0
 27 29  1  0  0  0
 27 30  2  0  0  0
 11 12  1  0  0  0
 12 13  1  0  0  0
 12  2  1  0  0  0
  1 14  1  0  0  0
  4 15  1  0  0  0
  6 16  1  0  0  0
  8 17  1  0  0  0
 10 18  1  0  0  0
 23 25  1  0  0  0
 28 31  1  0  0  0
 29 32  1  0  0  0
 13 19  1  0  0  0
M  END
> <minimizedAffinity>
-5.08325

> <CNNscore>
0.4367170036

> <CNNaffinity>
5.0602049828

> <CNN_VS>
2.2098774910

> <CNNaffinity_variance>
6.8744039536

$$$$
[H]N=C(N([H])[H])N([H])C([H])([H])C([H])([H])C([H])([H])[C@@]([H])(C([H])=O)N([H])C(=O)[C@@]([H])(N([H])C(=O)[C@@]([H])(N([H])C(=O)C([H])([H])[H])C([H])([H])c1c([H])c([H])c(O[H])c([H])c1[H])C([H])([H])c1c([H])c([H])c(O[H])c([H])c1[H]


 47 48  0  0  0  0  0  0  0  0999 V2000
   10.6527   48.3204  130.9729 C   0  0  0  0  0  0  0  0  0  0  0  0
    8.8115   46.6997  130.4420 C   0  0  0  0  0  0  0  0  0  0  0  0
    8.4717   46.7750  131.6571 O   0  0  0  0  0  0  0  0  0  0  0  0
    9.9162   47.4877  130.0447 N   0  0  0  0  0  0  0  0  0  0  0  0
   10.2302   47.4983  129.0657 H   0  0  0  0  0  0  0  0  0  0  0  0
    8.1095   45.8443  129.4771 C   0  0  0  0  0  0  0  0  0  0  0  0
    4.8274   47.6434  128.4855 C   0  0  0  0  0  0  0  0  0  0  0  0
    5.8376   46.8874  129.2482 C   0  0  0  0  0  0  0  0  0  0  0  0
    5.5696   46.4883  130.3955 O   0  0  0  0  0  0  0  0  0  0  0  0
    7.1424   46.5796  128.7285 N   0  0  0  0  0  0  0  0  0  0  0  0
    7.3227   46.9411  127.7590 H   0  0  0  0  0  0  0  0  0  0  0  0
    9.0224   44.9368  128.7598 C   0  0  0  0  0  0  0  0  0  0  0  0
    9.7535   44.0124  129.6531 C   0  0  0  0  0  0  0  0  0  0  0  0
   11.1017   44.1035  129.8074 C   0  0  0  0  0  0  0  0  0  0  0  0
   11.7688   43.2055  130.6287 C   0  0  0  0  0  0  0  0  0  0  0  0
   11.0985   42.2009  131.3100 C   0  0  0  0  0  0  0  0  0  0  0  0
   11.7767   41.2883  132.1421 O   0  0  0  0  0  0  0  0  0  0  0  0
    9.7293   42.1259  131.1420 C   0  0  0  0  0  0  0  0  0  0  0  0
    9.0687   43.0204  130.3241 C   0  0  0  0  0  0  0  0  0  0  0  0
   12.0965   40.4473  131.6404 H   0  0  0  0  0  0  0  0  0  0  0  0
   10.7521   47.6017  132.2797 C   0  0  0  0  0  0  0  0  0  0  0  0
   10.3762   48.2173  133.3099 O   0  0  0  0  0  0  0  0  0  0  0  0
   11.2435   46.2938  132.3391 N   0  0  0  0  0  0  0  0  0  0  0  0
   11.5542   45.8241  131.4393 H   0  0  0  0  0  0  0  0  0  0  0  0
   11.3773   45.4827  133.5426 C   0  0  0  0  0  0  0  0  0  0  0  0
   12.7282   44.9170  133.6531 C   0  0  0  0  0  0  0  0  0  0  0  0
   12.8652   43.7283  133.8853 O   0  0  0  0  0  0  0  0  0  0  0  0
   10.3191   44.4025  133.4153 C   0  0  0  0  0  0  0  0  0  0  0  0
    9.4142   44.2801  134.5897 C   0  0  0  0  0  0  0  0  0  0  0  0
    8.0631   44.9071  134.2987 C   0  0  0  0  0  0  0  0  0  0  0  0
    8.2114   46.3464  134.1166 N   0  0  0  0  0  0  0  0  0  0  0  0
    8.0502   46.7918  133.1773 H   0  0  0  0  0  0  0  0  0  0  0  0
    8.5819   47.1517  135.2200 C   0  0  0  0  0  0  0  0  0  0  0  0
    9.6870   46.7750  136.0163 N   0  0  0  0  0  0  0  0  0  0  0  0
    7.9260   48.2002  135.4951 N   0  0  0  0  0  0  0  0  0  0  0  0
    9.6740   46.9526  137.0343 H   0  0  0  0  0  0  0  0  0  0  0  0
   10.5029   46.3210  135.5578 H   0  0  0  0  0  0  0  0  0  0  0  0
    7.1089   48.5213  134.9487 H   0  0  0  0  0  0  0  0  0  0  0  0
   10.1438   49.6976  131.1272 C   0  0  0  0  0  0  0  0  0  0  0  0
    8.7713   49.8731  130.6093 C   0  0  0  0  0  0  0  0  0  0  0  0
    7.6939   49.9133  131.4758 C   0  0  0  0  0  0  0  0  0  0  0  0
    6.4083   50.0872  130.9993 C   0  0  0  0  0  0  0  0  0  0  0  0
    6.1346   50.2288  129.6620 C   0  0  0  0  0  0  0  0  0  0  0  0
    4.8489   50.4033  129.1789 O   0  0  0  0  0  0  0  0  0  0  0  0
    7.1943   50.1930  128.7784 C   0  0  0  0  0  0  0  0  0  0  0  0
    8.4844   50.0160  129.2702 C   0  0  0  0  0  0  0  0  0  0  0  0
    4.4718   51.3419  129.0826 H   0  0  0  0  0  0  0  0  0  0  0  0
  7  8  1  0  0  0
  8  9  2  0  0  0
  8 10  1  0  0  0
 10  6  1  0  0  0
  6 12  1  0  0  0
 12 13  1  0  0  0
 13 14  2  0  0  0
 14 15  1  0  0  0
 15 16  2  0  0  0
 16 17  1  0  0  0
 16 18  1  0  0  0
 18 19  2  0  0  0
  6  2  1  0  0  0
  2  3  2  0  0  0
  2  4  1  0  0  0
  4  1  1  0  0  0
  1 39  1  0  0  0
 39 40  1  0  0  0
 40 41  2  0  0  0
 41 42  1  0  0  0
 42 43  2  0  0  0
 43 44  1  0  0  0
 43 45  1  0  0  0
 45 46  2  0  0  0
  1 21  1  0  0  0
 21 22  2  0  0  0
 21 23  1  0  0  0
 23 25  1  0  0  0
 25 28  1  0  0  0
 28 29  1  0  0  0
 29 30  1  0  0  0
 30 31  1  0  0  0
 31 33  1  0  0  0
 33 34  1  0  0  0
 33 35  2  0  0  0
 25 26  1  0  0  0
 26 27  2  0  0  0
 19 13  1  0  0  0
 46 40  1  0  0  0
 10 11  1  0  0  0
 17 20  1  0  0  0
  4  5  1  0  0  0
 44 47  1  0  0  0
 23 24  1  0  0  0
 31 32  1  0  0  0
 34 36  1  0  0  0
 34 37  1  0  0  0
 35 38  1  0  0  0
M  END
> <minimizedAffinity>
-0.38758

> <CNNscore>
0.3262897432

> <CNNaffinity>
7.6332902908

> <CNN_VS>
2.4906642437

> <CNNaffinity_variance>
0.5233648419

$$$$
[H]N=C(N([H])[H])N([H])C([H])([H])C([H])([H])C([H])([H])[C@@]([H])(C([H])=O)N([H])C(=O)[C@@]([H])(N([H])C(=O)[C@@]([H])(N([H])C(=O)C([H])([H])[H])C([H])([H])c1c([H])c([H])c(O[H])c([H])c1[H])C([H])([H])c1c([H])c([H])c(O[H])c([H])c1[H]


 47 48  0  0  0  0  0  0  0  0999 V2000
    7.7659   45.1558  130.9621 C   0  0  0  0  0  0  0  0  0  0  0  0
    9.6029   46.3067  132.2269 C   0  0  0  0  0  0  0  0  0  0  0  0
   10.2900   46.2514  131.1675 O   0  0  0  0  0  0  0  0  0  0  0  0
    8.2965   45.7696  132.1618 N   0  0  0  0  0  0  0  0  0  0  0  0
    7.6711   45.8062  132.9770 H   0  0  0  0  0  0  0  0  0  0  0  0
   10.1159   46.8932  133.4713 C   0  0  0  0  0  0  0  0  0  0  0  0
   11.5651   43.7478  135.2030 C   0  0  0  0  0  0  0  0  0  0  0  0
   10.6465   44.6712  134.5121 C   0  0  0  0  0  0  0  0  0  0  0  0
    9.4942   44.2960  134.2314 O   0  0  0  0  0  0  0  0  0  0  0  0
   11.0166   46.0090  134.1372 N   0  0  0  0  0  0  0  0  0  0  0  0
   11.9996   46.2776  134.3914 H   0  0  0  0  0  0  0  0  0  0  0  0
   10.4968   48.3078  133.3127 C   0  0  0  0  0  0  0  0  0  0  0  0
    9.6949   49.0215  132.2957 C   0  0  0  0  0  0  0  0  0  0  0  0
    8.3885   49.3278  132.5186 C   0  0  0  0  0  0  0  0  0  0  0  0
    7.6491   49.9718  131.5367 C   0  0  0  0  0  0  0  0  0  0  0  0
    8.2038   50.3210  130.3148 C   0  0  0  0  0  0  0  0  0  0  0  0
    7.4518   50.9732  129.3176 O   0  0  0  0  0  0  0  0  0  0  0  0
    9.5323   50.0034  130.1080 C   0  0  0  0  0  0  0  0  0  0  0  0
   10.2651   49.3623  131.0866 C   0  0  0  0  0  0  0  0  0  0  0  0
    6.9773   50.3188  128.6790 H   0  0  0  0  0  0  0  0  0  0  0  0
    8.2787   43.7543  130.8791 C   0  0  0  0  0  0  0  0  0  0  0  0
    7.5033   42.8799  130.4149 O   0  0  0  0  0  0  0  0  0  0  0  0
    9.5745   43.4424  131.3026 N   0  0  0  0  0  0  0  0  0  0  0  0
   10.1842   44.2183  131.6936 H   0  0  0  0  0  0  0  0  0  0  0  0
   10.1953   42.1244  131.2616 C   0  0  0  0  0  0  0  0  0  0  0  0
   11.1993   41.9780  132.3234 C   0  0  0  0  0  0  0  0  0  0  0  0
   12.3413   42.3561  132.1273 O   0  0  0  0  0  0  0  0  0  0  0  0
   10.8122   42.0168  129.8793 C   0  0  0  0  0  0  0  0  0  0  0  0
   10.3508   43.0491  128.9127 C   0  0  0  0  0  0  0  0  0  0  0  0
   11.5230   43.8510  128.3778 C   0  0  0  0  0  0  0  0  0  0  0  0
   11.8907   44.8912  129.3315 N   0  0  0  0  0  0  0  0  0  0  0  0
   11.3834   45.8126  129.3485 H   0  0  0  0  0  0  0  0  0  0  0  0
   12.9482   44.6563  130.2423 C   0  0  0  0  0  0  0  0  0  0  0  0
   14.1201   44.0052  129.7950 N   0  0  0  0  0  0  0  0  0  0  0  0
   12.8445   45.0227  131.4508 N   0  0  0  0  0  0  0  0  0  0  0  0
   14.6264   43.3624  130.4263 H   0  0  0  0  0  0  0  0  0  0  0  0
   14.4557   44.1873  128.8274 H   0  0  0  0  0  0  0  0  0  0  0  0
   12.0103   45.5002  131.8320 H   0  0  0  0  0  0  0  0  0  0  0  0
    7.9910   45.9106  129.7135 C   0  0  0  0  0  0  0  0  0  0  0  0
    6.9568   46.9340  129.4566 C   0  0  0  0  0  0  0  0  0  0  0  0
    7.1609   47.9141  128.5024 C   0  0  0  0  0  0  0  0  0  0  0  0
    6.1938   48.8686  128.2497 C   0  0  0  0  0  0  0  0  0  0  0  0
    4.9966   48.8949  128.9199 C   0  0  0  0  0  0  0  0  0  0  0  0
    4.0240   49.8484  128.6710 O   0  0  0  0  0  0  0  0  0  0  0  0
    4.7700   47.9256  129.8762 C   0  0  0  0  0  0  0  0  0  0  0  0
    5.7522   46.9706  130.1226 C   0  0  0  0  0  0  0  0  0  0  0  0
    3.3183   49.6724  127.9616 H   0  0  0  0  0  0  0  0  0  0  0  0
  7  8  1  0  0  0
  8  9  2  0  0  0
  8 10  1  0  0  0
 10  6  1  0  0  0
  6 12  1  0  0  0
 12 13  1  0  0  0
 13 14  2  0  0  0
 14 15  1  0  0  0
 15 16  2  0  0  0
 16 17  1  0  0  0
 16 18  1  0  0  0
 18 19  2  0  0  0
  6  2  1  0  0  0
  2  3  2  0  0  0
  2  4  1  0  0  0
  4  1  1  0  0  0
  1 39  1  0  0  0
 39 40  1  0  0  0
 40 41  2  0  0  0
 41 42  1  0  0  0
 42 43  2  0  0  0
 43 44  1  0  0  0
 43 45  1  0  0  0
 45 46  2  0  0  0
  1 21  1  0  0  0
 21 22  2  0  0  0
 21 23  1  0  0  0
 23 25  1  0  0  0
 25 28  1  0  0  0
 28 29  1  0  0  0
 29 30  1  0  0  0
 30 31  1  0  0  0
 31 33  1  0  0  0
 33 34  1  0  0  0
 33 35  2  0  0  0
 25 26  1  0  0  0
 26 27  2  0  0  0
 19 13  1  0  0  0
 46 40  1  0  0  0
 10 11  1  0  0  0
 17 20  1  0  0  0
  4  5  1  0  0  0
 44 47  1  0  0  0
 23 24  1  0  0  0
 31 32  1  0  0  0
 34 36  1  0  0  0
 34 37  1  0  0  0
 35 38  1  0  0  0
M  END
> <minimizedAffinity>
-0.60918

> <CNNscore>
0.3161156476

> <CNNaffinity>
7.6275115013

> <CNN_VS>
2.4111757278

> <CNNaffinity_variance>
0.3898333907

$$$$
[H]N=C(N([H])[H])N([H])C([H])([H])C([H])([H])C([H])([H])[C@@]([H])(C([H])=O)N([H])C(=O)[C@@]([H])(N([H])C(=O)[C@@]([H])(N([H])C(=O)C([H])([H])[H])C([H])([H])c1c([H])c([H])c(O[H])c([H])c1[H])C([H])([H])c1c([H])c([H])c(O[H])c([H])c1[H]


 47 48  0  0  0  0  0  0  0  0999 V2000
    9.7799   48.0549  130.4684 C   0  0  0  0  0  0  0  0  0  0  0  0
   10.4866   48.0855  132.8765 C   0  0  0  0  0  0  0  0  0  0  0  0
   10.2029   49.3172  132.8854 O   0  0  0  0  0  0  0  0  0  0  0  0
   10.2706   47.3959  131.6611 N   0  0  0  0  0  0  0  0  0  0  0  0
   10.4521   46.3864  131.5893 H   0  0  0  0  0  0  0  0  0  0  0  0
   11.0147   47.3881  134.0556 C   0  0  0  0  0  0  0  0  0  0  0  0
   13.4383   49.1253  136.5255 C   0  0  0  0  0  0  0  0  0  0  0  0
   12.8799   48.1897  135.5322 C   0  0  0  0  0  0  0  0  0  0  0  0
   13.5800   47.2525  135.1093 O   0  0  0  0  0  0  0  0  0  0  0  0
   11.5432   48.3030  135.0148 N   0  0  0  0  0  0  0  0  0  0  0  0
   10.9935   49.1114  135.3985 H   0  0  0  0  0  0  0  0  0  0  0  0
   10.1237   46.3097  134.5188 C   0  0  0  0  0  0  0  0  0  0  0  0
   10.4078   45.0020  133.8894 C   0  0  0  0  0  0  0  0  0  0  0  0
   11.6854   44.5932  133.6643 C   0  0  0  0  0  0  0  0  0  0  0  0
   11.9255   43.3746  133.0452 C   0  0  0  0  0  0  0  0  0  0  0  0
   10.8916   42.5436  132.6410 C   0  0  0  0  0  0  0  0  0  0  0  0
   11.1361   41.3074  132.0109 O   0  0  0  0  0  0  0  0  0  0  0  0
    9.6012   42.9754  132.8802 C   0  0  0  0  0  0  0  0  0  0  0  0
    9.3657   44.1883  133.4958 C   0  0  0  0  0  0  0  0  0  0  0  0
   11.1966   41.3836  130.9853 H   0  0  0  0  0  0  0  0  0  0  0  0
    8.3106   48.2825  130.6221 C   0  0  0  0  0  0  0  0  0  0  0  0
    7.7264   47.6837  131.5611 O   0  0  0  0  0  0  0  0  0  0  0  0
    7.6253   49.1336  129.7496 N   0  0  0  0  0  0  0  0  0  0  0  0
    8.1666   49.6078  128.9692 H   0  0  0  0  0  0  0  0  0  0  0  0
    6.2032   49.4486  129.8006 C   0  0  0  0  0  0  0  0  0  0  0  0
    5.4509   48.6651  128.8121 C   0  0  0  0  0  0  0  0  0  0  0  0
    5.7738   47.5116  128.5871 O   0  0  0  0  0  0  0  0  0  0  0  0
    6.1146   50.9390  129.5291 C   0  0  0  0  0  0  0  0  0  0  0  0
    7.1710   51.4680  128.6252 C   0  0  0  0  0  0  0  0  0  0  0  0
    6.9085   52.9224  128.2800 C   0  0  0  0  0  0  0  0  0  0  0  0
    7.4176   53.2169  126.9456 N   0  0  0  0  0  0  0  0  0  0  0  0
    7.8011   52.4527  126.3326 H   0  0  0  0  0  0  0  0  0  0  0  0
    7.3982   54.5510  126.4734 C   0  0  0  0  0  0  0  0  0  0  0  0
    8.6186   55.2188  126.2246 N   0  0  0  0  0  0  0  0  0  0  0  0
    6.2957   55.1444  126.2789 N   0  0  0  0  0  0  0  0  0  0  0  0
    8.7001   56.2318  126.4120 H   0  0  0  0  0  0  0  0  0  0  0  0
    9.4216   54.6722  125.8528 H   0  0  0  0  0  0  0  0  0  0  0  0
    5.3747   54.7052  126.4463 H   0  0  0  0  0  0  0  0  0  0  0  0
   10.1142   47.3875  129.1948 C   0  0  0  0  0  0  0  0  0  0  0  0
    9.9894   45.9167  129.2573 C   0  0  0  0  0  0  0  0  0  0  0  0
    8.7492   45.3233  129.4082 C   0  0  0  0  0  0  0  0  0  0  0  0
    8.6238   43.9478  129.4575 C   0  0  0  0  0  0  0  0  0  0  0  0
    9.7052   43.1087  129.3593 C   0  0  0  0  0  0  0  0  0  0  0  0
    9.5857   41.7302  129.4078 O   0  0  0  0  0  0  0  0  0  0  0  0
   10.9532   43.6784  129.2069 C   0  0  0  0  0  0  0  0  0  0  0  0
   11.0668   45.0649  129.1600 C   0  0  0  0  0  0  0  0  0  0  0  0
    9.4402   41.2083  128.5483 H   0  0  0  0  0  0  0  0  0  0  0  0
  7  8  1  0  0  0
  8  9  2  0  0  0
  8 10  1  0  0  0
 10  6  1  0  0  0
  6 12  1  0  0  0
 12 13  1  0  0  0
 13 14  2  0  0  0
 14 15  1  0  0  0
 15 16  2  0  0  0
 16 17  1  0  0  0
 16 18  1  0  0  0
 18 19  2  0  0  0
  6  2  1  0  0  0
  2  3  2  0  0  0
  2  4  1  0  0  0
  4  1  1  0  0  0
  1 39  1  0  0  0
 39 40  1  0  0  0
 40 41  2  0  0  0
 41 42  1  0  0  0
 42 43  2  0  0  0
 43 44  1  0  0  0
 43 45  1  0  0  0
 45 46  2  0  0  0
  1 21  1  0  0  0
 21 22  2  0  0  0
 21 23  1  0  0  0
 23 25  1  0  0  0
 25 28  1  0  0  0
 28 29  1  0  0  0
 29 30  1  0  0  0
 30 31  1  0  0  0
 31 33  1  0  0  0
 33 34  1  0  0  0
 33 35  2  0  0  0
 25 26  1  0  0  0
 26 27  2  0  0  0
 19 13  1  0  0  0
 46 40  1  0  0  0
 10 11  1  0  0  0
 17 20  1  0  0  0
  4  5  1  0  0  0
 44 47  1  0  0  0
 23 24  1  0  0  0
 31 32  1  0  0  0
 34 36  1  0  0  0
 34 37  1  0  0  0
 35 38  1  0  0  0
M  END
> <minimizedAffinity>
-0.36078

> <CNNscore>
0.2998012900

> <CNNaffinity>
7.4463858604

> <CNN_VS>
2.2324361801

> <CNNaffinity_variance>
0.3718488812

$$$$
[H]N=C(N([H])[H])N([H])C([H])([H])C([H])([H])C([H])([H])[C@@]([H])(C([H])=O)N([H])C(=O)[C@@]([H])(N([H])C(=O)[C@@]([H])(N([H])C(=O)C([H])([H])[H])C([H])([H])c1c([H])c([H])c(O[H])c([H])c1[H])C([H])([H])c1c([H])c([H])c(O[H])c([H])c1[H]


 47 48  0  0  0  0  0  0  0  0999 V2000
    9.6452   48.0727  129.4702 C   0  0  0  0  0  0  0  0  0  0  0  0
   10.1781   48.2008  131.9193 C   0  0  0  0  0  0  0  0  0  0  0  0
   10.6526   49.3513  131.6982 O   0  0  0  0  0  0  0  0  0  0  0  0
    9.6374   47.5156  130.8070 N   0  0  0  0  0  0  0  0  0  0  0  0
    9.2085   46.5878  130.9180 H   0  0  0  0  0  0  0  0  0  0  0  0
   10.1793   47.5892  133.2541 C   0  0  0  0  0  0  0  0  0  0  0  0
    7.3458   45.6899  135.0863 C   0  0  0  0  0  0  0  0  0  0  0  0
    8.5822   46.4472  134.8185 C   0  0  0  0  0  0  0  0  0  0  0  0
    9.3315   46.7543  135.7628 O   0  0  0  0  0  0  0  0  0  0  0  0
    8.9779   46.8589  133.4989 N   0  0  0  0  0  0  0  0  0  0  0  0
    8.3116   46.5804  132.7364 H   0  0  0  0  0  0  0  0  0  0  0  0
   11.4711   46.9627  133.5860 C   0  0  0  0  0  0  0  0  0  0  0  0
   11.5658   45.5501  133.1587 C   0  0  0  0  0  0  0  0  0  0  0  0
   12.1605   45.2097  131.9838 C   0  0  0  0  0  0  0  0  0  0  0  0
   12.2107   43.8796  131.5909 C   0  0  0  0  0  0  0  0  0  0  0  0
   11.6671   42.8671  132.3669 C   0  0  0  0  0  0  0  0  0  0  0  0
   11.7167   41.5172  131.9664 O   0  0  0  0  0  0  0  0  0  0  0  0
   11.0692   43.2327  133.5575 C   0  0  0  0  0  0  0  0  0  0  0  0
   11.0206   44.5566  133.9453 C   0  0  0  0  0  0  0  0  0  0  0  0
   10.9033   41.2352  131.4006 H   0  0  0  0  0  0  0  0  0  0  0  0
    8.3669   48.8182  129.2590 C   0  0  0  0  0  0  0  0  0  0  0  0
    7.5823   48.3851  128.3769 O   0  0  0  0  0  0  0  0  0  0  0  0
    8.0670   49.9507  130.0225 N   0  0  0  0  0  0  0  0  0  0  0  0
    8.7690   50.2773  130.7487 H   0  0  0  0  0  0  0  0  0  0  0  0
    6.8548   50.7540  129.9240 C   0  0  0  0  0  0  0  0  0  0  0  0
    5.6554   49.9304  130.1244 C   0  0  0  0  0  0  0  0  0  0  0  0
    4.7890   49.9113  129.2673 O   0  0  0  0  0  0  0  0  0  0  0  0
    6.8951   51.3688  128.5371 C   0  0  0  0  0  0  0  0  0  0  0  0
    7.2062   52.8233  128.5129 C   0  0  0  0  0  0  0  0  0  0  0  0
    6.8876   53.4215  127.1550 C   0  0  0  0  0  0  0  0  0  0  0  0
    7.9394   54.3520  126.7620 N   0  0  0  0  0  0  0  0  0  0  0  0
    8.5266   54.8407  127.4852 H   0  0  0  0  0  0  0  0  0  0  0  0
    8.1678   54.6022  125.3878 C   0  0  0  0  0  0  0  0  0  0  0  0
    7.1190   54.4060  124.4611 N   0  0  0  0  0  0  0  0  0  0  0  0
    9.3048   54.9950  124.9898 N   0  0  0  0  0  0  0  0  0  0  0  0
    7.3274   54.0510  123.5132 H   0  0  0  0  0  0  0  0  0  0  0  0
    6.1451   54.6254  124.7534 H   0  0  0  0  0  0  0  0  0  0  0  0
   10.1072   55.1525  125.6227 H   0  0  0  0  0  0  0  0  0  0  0  0
    9.9186   47.1093  128.3856 C   0  0  0  0  0  0  0  0  0  0  0  0
    9.7276   45.7023  128.7941 C   0  0  0  0  0  0  0  0  0  0  0  0
    8.7238   45.3593  129.6816 C   0  0  0  0  0  0  0  0  0  0  0  0
    8.5329   44.0439  130.0605 C   0  0  0  0  0  0  0  0  0  0  0  0
    9.3150   43.0222  129.5833 C   0  0  0  0  0  0  0  0  0  0  0  0
    9.1284   41.7028  129.9591 O   0  0  0  0  0  0  0  0  0  0  0  0
   10.3226   43.3406  128.6952 C   0  0  0  0  0  0  0  0  0  0  0  0
   10.5059   44.6691  128.3223 C   0  0  0  0  0  0  0  0  0  0  0  0
    8.4977   41.1128  129.4239 H   0  0  0  0  0  0  0  0  0  0  0  0
  7  8  1  0  0  0
  8  9  2  0  0  0
  8 10  1  0  0  0
 10  6  1  0  0  0
  6 12  1  0  0  0
 12 13  1  0  0  0
 13 14  2  0  0  0
 14 15  1  0  0  0
 15 16  2  0  0  0
 16 17  1  0  0  0
 16 18  1  0  0  0
 18 19  2  0  0  0
  6  2  1  0  0  0
  2  3  2  0  0  0
  2  4  1  0  0  0
  4  1  1  0  0  0
  1 39  1  0  0  0
 39 40  1  0  0  0
 40 41  2  0  0  0
 41 42  1  0  0  0
 42 43  2  0  0  0
 43 44  1  0  0  0
 43 45  1  0  0  0
 45 46  2  0  0  0
  1 21  1  0  0  0
 21 22  2  0  0  0
 21 23  1  0  0  0
 23 25  1  0  0  0
 25 28  1  0  0  0
 28 29  1  0  0  0
 29 30  1  0  0  0
 30 31  1  0  0  0
 31 33  1  0  0  0
 33 34  1  0  0  0
 33 35  2  0  0  0
 25 26  1  0  0  0
 26 27  2  0  0  0
 19 13  1  0  0  0
 46 40  1  0  0  0
 10 11  1  0  0  0
 17 20  1  0  0  0
  4  5  1  0  0  0
 44 47  1  0  0  0
 23 24  1  0  0  0
 31 32  1  0  0  0
 34 36  1  0  0  0
 34 37  1  0  0  0
 35 38  1  0  0  0
M  END
> <minimizedAffinity>
-3.52651

> <CNNscore>
0.2467424721

> <CNNaffinity>
7.2881050110

> <CNN_VS>
1.7982850075

> <CNNaffinity_variance>
0.3418446481

$$$$
[H]N=C(N([H])[H])N([H])C([H])([H])C([H])([H])C([H])([H])[C@@]([H])(C([H])=O)N([H])C(=O)[C@@]([H])(N([H])C(=O)[C@@]([H])(N([H])C(=O)C([H])([H])[H])C([H])([H])c1c([H])c([H])c(O[H])c([H])c1[H])C([H])([H])c1c([H])c([H])c(O[H])c([H])c1[H]


 47 48  0  0  0  0  0  0  0  0999 V2000
   11.1048   48.1615  131.6795 C   0  0  0  0  0  0  0  0  0  0  0  0
   11.9794   45.8332  132.0154 C   0  0  0  0  0  0  0  0  0  0  0  0
   12.1788   46.1432  133.2244 O   0  0  0  0  0  0  0  0  0  0  0  0
   11.4158   46.8341  131.1909 N   0  0  0  0  0  0  0  0  0  0  0  0
   11.1996   46.6430  130.2040 H   0  0  0  0  0  0  0  0  0  0  0  0
   12.3095   44.5086  131.4749 C   0  0  0  0  0  0  0  0  0  0  0  0
   15.1685   44.3730  128.8672 C   0  0  0  0  0  0  0  0  0  0  0  0
   13.8268   44.3999  129.4779 C   0  0  0  0  0  0  0  0  0  0  0  0
   12.8193   44.3463  128.7504 O   0  0  0  0  0  0  0  0  0  0  0  0
   13.6142   44.4865  130.8973 N   0  0  0  0  0  0  0  0  0  0  0  0
   14.4942   44.5336  131.4686 H   0  0  0  0  0  0  0  0  0  0  0  0
   11.9157   43.4157  132.3815 C   0  0  0  0  0  0  0  0  0  0  0  0
   10.5329   42.9397  132.1618 C   0  0  0  0  0  0  0  0  0  0  0  0
    9.6101   42.9761  133.1604 C   0  0  0  0  0  0  0  0  0  0  0  0
    8.3272   42.4962  132.9380 C   0  0  0  0  0  0  0  0  0  0  0  0
    7.9450   41.9719  131.7125 C   0  0  0  0  0  0  0  0  0  0  0  0
    6.6428   41.4831  131.4880 O   0  0  0  0  0  0  0  0  0  0  0  0
    8.8956   41.9453  130.7103 C   0  0  0  0  0  0  0  0  0  0  0  0
   10.1712   42.4231  130.9349 C   0  0  0  0  0  0  0  0  0  0  0  0
    6.5447   40.4822  131.7112 H   0  0  0  0  0  0  0  0  0  0  0  0
    9.9977   48.0526  132.6779 C   0  0  0  0  0  0  0  0  0  0  0  0
    9.8083   49.0328  133.4426 O   0  0  0  0  0  0  0  0  0  0  0  0
    9.2090   46.8998  132.7459 N   0  0  0  0  0  0  0  0  0  0  0  0
    9.4176   46.0989  132.0812 H   0  0  0  0  0  0  0  0  0  0  0  0
    8.0964   46.6757  133.6602 C   0  0  0  0  0  0  0  0  0  0  0  0
    8.5708   46.1989  134.9657 C   0  0  0  0  0  0  0  0  0  0  0  0
    9.6995   45.7504  135.0683 O   0  0  0  0  0  0  0  0  0  0  0  0
    7.2127   45.6529  132.9701 C   0  0  0  0  0  0  0  0  0  0  0  0
    7.1116   45.8161  131.4949 C   0  0  0  0  0  0  0  0  0  0  0  0
    8.4170   45.4393  130.8188 C   0  0  0  0  0  0  0  0  0  0  0  0
    8.1585   44.9784  129.4596 N   0  0  0  0  0  0  0  0  0  0  0  0
    7.1744   44.8539  129.1092 H   0  0  0  0  0  0  0  0  0  0  0  0
    9.2488   44.6913  128.6041 C   0  0  0  0  0  0  0  0  0  0  0  0
    9.2098   43.5361  127.7910 N   0  0  0  0  0  0  0  0  0  0  0  0
   10.2546   45.4612  128.5699 N   0  0  0  0  0  0  0  0  0  0  0  0
   10.0784   43.0096  127.6003 H   0  0  0  0  0  0  0  0  0  0  0  0
    8.2970   43.2336  127.3945 H   0  0  0  0  0  0  0  0  0  0  0  0
   10.3370   46.3172  129.1440 H   0  0  0  0  0  0  0  0  0  0  0  0
   10.8236   49.1686  130.6374 C   0  0  0  0  0  0  0  0  0  0  0  0
    9.3958   49.2375  130.2637 C   0  0  0  0  0  0  0  0  0  0  0  0
    8.5614   50.1725  130.8488 C   0  0  0  0  0  0  0  0  0  0  0  0
    7.2271   50.2492  130.4968 C   0  0  0  0  0  0  0  0  0  0  0  0
    6.6663   49.4165  129.5613 C   0  0  0  0  0  0  0  0  0  0  0  0
    5.3304   49.4888  129.2046 O   0  0  0  0  0  0  0  0  0  0  0  0
    7.4802   48.4759  128.9629 C   0  0  0  0  0  0  0  0  0  0  0  0
    8.8221   48.4075  129.3268 C   0  0  0  0  0  0  0  0  0  0  0  0
    5.0465   50.0979  128.4425 H   0  0  0  0  0  0  0  0  0  0  0  0
  7  8  1  0  0  0
  8  9  2  0  0  0
  8 10  1  0  0  0
 10  6  1  0  0  0
  6 12  1  0  0  0
 12 13  1  0  0  0
 13 14  2  0  0  0
 14 15  1  0  0  0
 15 16  2  0  0  0
 16 17  1  0  0  0
 16 18  1  0  0  0
 18 19  2  0  0  0
  6  2  1  0  0  0
  2  3  2  0  0  0
  2  4  1  0  0  0
  4  1  1  0  0  0
  1 39  1  0  0  0
 39 40  1  0  0  0
 40 41  2  0  0  0
 41 42  1  0  0  0
 42 43  2  0  0  0
 43 44  1  0  0  0
 43 45  1  0  0  0
 45 46  2  0  0  0
  1 21  1  0  0  0
 21 22  2  0  0  0
 21 23  1  0  0  0
 23 25  1  0  0  0
 25 28  1  0  0  0
 28 29  1  0  0  0
 29 30  1  0  0  0
 30 31  1  0  0  0
 31 33  1  0  0  0
 33 34  1  0  0  0
 33 35  2  0  0  0
 25 26  1  0  0  0
 26 27  2  0  0  0
 19 13  1  0  0  0
 46 40  1  0  0  0
 10 11  1  0  0  0
 17 20  1  0  0  0
  4  5  1  0  0  0
 44 47  1  0  0  0
 23 24  1  0  0  0
 31 32  1  0  0  0
 34 36  1  0  0  0
 34 37  1  0  0  0
 35 38  1  0  0  0
M  END
> <minimizedAffinity>
-1.78885

> <CNNscore>
0.2440293133

> <CNNaffinity>
7.3779768944

> <CNN_VS>
1.8004425764

> <CNNaffinity_variance>
0.3871527314

$$$$
[H]N=C(N([H])[H])N([H])C([H])([H])C([H])([H])C([H])([H])[C@@]([H])(C([H])=O)N([H])C(=O)[C@@]([H])(N([H])C(=O)[C@@]([H])(N([H])C(=O)C([H])([H])[H])C([H])([H])c1c([H])c([H])c(O[H])c([H])c1[H])C([H])([H])c1c([H])c([H])c(O[H])c([H])c1[H]


 47 48  0  0  0  0  0  0  0  0999 V2000
    7.3602   45.4816  130.5701 C   0  0  0  0  0  0  0  0  0  0  0  0
    8.7071   43.3647  130.6290 C   0  0  0  0  0  0  0  0  0  0  0  0
    7.6987   42.8043  131.1454 O   0  0  0  0  0  0  0  0  0  0  0  0
    8.5719   44.7342  130.3042 N   0  0  0  0  0  0  0  0  0  0  0  0
    9.3415   45.2471  129.8551 H   0  0  0  0  0  0  0  0  0  0  0  0
    9.9631   42.6492  130.3719 C   0  0  0  0  0  0  0  0  0  0  0  0
   11.1439   44.2587  127.0540 C   0  0  0  0  0  0  0  0  0  0  0  0
   10.3229   43.5615  128.0609 C   0  0  0  0  0  0  0  0  0  0  0  0
    9.1911   43.1481  127.7518 O   0  0  0  0  0  0  0  0  0  0  0  0
   10.7674   43.3283  129.4083 N   0  0  0  0  0  0  0  0  0  0  0  0
   11.7265   43.6991  129.6221 H   0  0  0  0  0  0  0  0  0  0  0  0
   10.5975   42.1615  131.6092 C   0  0  0  0  0  0  0  0  0  0  0  0
   11.2900   43.2225  132.3719 C   0  0  0  0  0  0  0  0  0  0  0  0
   11.9604   44.2210  131.7368 C   0  0  0  0  0  0  0  0  0  0  0  0
   12.6272   45.1886  132.4751 C   0  0  0  0  0  0  0  0  0  0  0  0
   12.6345   45.1741  133.8617 C   0  0  0  0  0  0  0  0  0  0  0  0
   13.3132   46.1557  134.6105 O   0  0  0  0  0  0  0  0  0  0  0  0
   11.9462   44.1532  134.4884 C   0  0  0  0  0  0  0  0  0  0  0  0
   11.2843   43.1920  133.7511 C   0  0  0  0  0  0  0  0  0  0  0  0
   14.2918   45.9036  134.8110 H   0  0  0  0  0  0  0  0  0  0  0  0
    7.3749   46.7221  129.7362 C   0  0  0  0  0  0  0  0  0  0  0  0
    8.2666   46.8173  128.8546 O   0  0  0  0  0  0  0  0  0  0  0  0
    6.4255   47.7287  129.9380 N   0  0  0  0  0  0  0  0  0  0  0  0
    5.6995   47.5998  130.7016 H   0  0  0  0  0  0  0  0  0  0  0  0
    6.3239   48.9736  129.1869 C   0  0  0  0  0  0  0  0  0  0  0  0
    7.5363   49.7875  129.3432 C   0  0  0  0  0  0  0  0  0  0  0  0
    7.4378   50.9966  129.4620 O   0  0  0  0  0  0  0  0  0  0  0  0
    5.0960   49.6738  129.7392 C   0  0  0  0  0  0  0  0  0  0  0  0
    3.9228   49.6810  128.8246 C   0  0  0  0  0  0  0  0  0  0  0  0
    3.6953   51.0665  128.2484 C   0  0  0  0  0  0  0  0  0  0  0  0
    2.7661   50.9926  127.1269 N   0  0  0  0  0  0  0  0  0  0  0  0
    2.8898   50.2735  126.3691 H   0  0  0  0  0  0  0  0  0  0  0  0
    1.6867   51.9054  127.0577 C   0  0  0  0  0  0  0  0  0  0  0  0
    0.3622   51.4268  127.1756 N   0  0  0  0  0  0  0  0  0  0  0  0
    1.9048   53.1418  126.8870 N   0  0  0  0  0  0  0  0  0  0  0  0
   -0.3970   51.8698  126.6321 H   0  0  0  0  0  0  0  0  0  0  0  0
    0.1734   50.6285  127.8152 H   0  0  0  0  0  0  0  0  0  0  0  0
    2.8519   53.5458  126.7923 H   0  0  0  0  0  0  0  0  0  0  0  0
    7.0925   45.7657  131.9938 C   0  0  0  0  0  0  0  0  0  0  0  0
    8.2168   46.4401  132.6749 C   0  0  0  0  0  0  0  0  0  0  0  0
    8.9199   47.4474  132.0394 C   0  0  0  0  0  0  0  0  0  0  0  0
    9.9663   48.0895  132.6741 C   0  0  0  0  0  0  0  0  0  0  0  0
   10.3578   47.7692  133.9498 C   0  0  0  0  0  0  0  0  0  0  0  0
   11.4052   48.4090  134.5907 O   0  0  0  0  0  0  0  0  0  0  0  0
    9.6698   46.7675  134.6044 C   0  0  0  0  0  0  0  0  0  0  0  0
    8.6187   46.1273  133.9542 C   0  0  0  0  0  0  0  0  0  0  0  0
   11.2222   49.2425  135.1422 H   0  0  0  0  0  0  0  0  0  0  0  0
  7  8  1  0  0  0
  8  9  2  0  0  0
  8 10  1  0  0  0
 10  6  1  0  0  0
  6 12  1  0  0  0
 12 13  1  0  0  0
 13 14  2  0  0  0
 14 15  1  0  0  0
 15 16  2  0  0  0
 16 17  1  0  0  0
 16 18  1  0  0  0
 18 19  2  0  0  0
  6  2  1  0  0  0
  2  3  2  0  0  0
  2  4  1  0  0  0
  4  1  1  0  0  0
  1 39  1  0  0  0
 39 40  1  0  0  0
 40 41  2  0  0  0
 41 42  1  0  0  0
 42 43  2  0  0  0
 43 44  1  0  0  0
 43 45  1  0  0  0
 45 46  2  0  0  0
  1 21  1  0  0  0
 21 22  2  0  0  0
 21 23  1  0  0  0
 23 25  1  0  0  0
 25 28  1  0  0  0
 28 29  1  0  0  0
 29 30  1  0  0  0
 30 31  1  0  0  0
 31 33  1  0  0  0
 33 34  1  0  0  0
 33 35  2  0  0  0
 25 26  1  0  0  0
 26 27  2  0  0  0
 19 13  1  0  0  0
 46 40  1  0  0  0
 10 11  1  0  0  0
 17 20  1  0  0  0
  4  5  1  0  0  0
 44 47  1  0  0  0
 23 24  1  0  0  0
 31 32  1  0  0  0
 34 36  1  0  0  0
 34 37  1  0  0  0
 35 38  1  0  0  0
M  END
> <minimizedAffinity>
0.49833

> <CNNscore>
0.2348299176

> <CNNaffinity>
7.4498453140

> <CNN_VS>
1.7494465113

> <CNNaffinity_variance>
0.3032478392

$$$$
[H]N=C(N([H])[H])N([H])C([H])([H])C([H])([H])C([H])([H])[C@@]([H])(C([H])=O)N([H])C(=O)[C@@]([H])(N([H])C(=O)[C@@]([H])(N([H])C(=O)C([H])([H])[H])C([H])([H])c1c([H])c([H])c(O[H])c([H])c1[H])C([H])([H])c1c([H])c([H])c(O[H])c([H])c1[H]


 47 48  0  0  0  0  0  0  0  0999 V2000
    7.9935   42.9840  131.0932 C   0  0  0  0  0  0  0  0  0  0  0  0
    8.3223   45.4324  131.5360 C   0  0  0  0  0  0  0  0  0  0  0  0
    9.4963   45.1495  131.9093 O   0  0  0  0  0  0  0  0  0  0  0  0
    7.5219   44.3534  131.0953 N   0  0  0  0  0  0  0  0  0  0  0  0
    6.5666   44.5132  130.7503 H   0  0  0  0  0  0  0  0  0  0  0  0
    7.7973   46.8034  131.5521 C   0  0  0  0  0  0  0  0  0  0  0  0
   10.2392   49.4244  133.0218 C   0  0  0  0  0  0  0  0  0  0  0  0
    9.1621   48.4253  132.8970 C   0  0  0  0  0  0  0  0  0  0  0  0
    8.4847   48.1240  133.8958 O   0  0  0  0  0  0  0  0  0  0  0  0
    8.8449   47.7666  131.6590 N   0  0  0  0  0  0  0  0  0  0  0  0
    9.4465   48.0508  130.8464 H   0  0  0  0  0  0  0  0  0  0  0  0
    6.7392   47.0137  130.5483 C   0  0  0  0  0  0  0  0  0  0  0  0
    6.7808   48.3531  129.9227 C   0  0  0  0  0  0  0  0  0  0  0  0
    7.4385   48.5611  128.7505 C   0  0  0  0  0  0  0  0  0  0  0  0
    7.4882   49.8335  128.1986 C   0  0  0  0  0  0  0  0  0  0  0  0
    6.8804   50.9197  128.8098 C   0  0  0  0  0  0  0  0  0  0  0  0
    6.9329   52.2115  128.2499 O   0  0  0  0  0  0  0  0  0  0  0  0
    6.2157   50.6879  129.9986 C   0  0  0  0  0  0  0  0  0  0  0  0
    6.1684   49.4211  130.5452 C   0  0  0  0  0  0  0  0  0  0  0  0
    7.7484   52.7549  128.5676 H   0  0  0  0  0  0  0  0  0  0  0  0
    8.8181   42.7640  132.3203 C   0  0  0  0  0  0  0  0  0  0  0  0
    8.2105   42.6645  133.4168 O   0  0  0  0  0  0  0  0  0  0  0  0
   10.2109   42.6716  132.2368 N   0  0  0  0  0  0  0  0  0  0  0  0
   10.6729   42.7706  131.2863 H   0  0  0  0  0  0  0  0  0  0  0  0
   11.1229   42.4460  133.3511 C   0  0  0  0  0  0  0  0  0  0  0  0
   10.6769   43.1604  134.5543 C   0  0  0  0  0  0  0  0  0  0  0  0
   11.5010   43.5437  135.3663 O   0  0  0  0  0  0  0  0  0  0  0  0
   12.4740   42.9393  132.8671 C   0  0  0  0  0  0  0  0  0  0  0  0
   12.4416   43.6550  131.5634 C   0  0  0  0  0  0  0  0  0  0  0  0
   12.9435   45.0792  131.7161 C   0  0  0  0  0  0  0  0  0  0  0  0
   11.9040   45.9120  132.3099 N   0  0  0  0  0  0  0  0  0  0  0  0
   11.1842   46.3885  131.7087 H   0  0  0  0  0  0  0  0  0  0  0  0
   11.8688   46.0832  133.7144 C   0  0  0  0  0  0  0  0  0  0  0  0
   10.6298   46.3029  134.3576 N   0  0  0  0  0  0  0  0  0  0  0  0
   12.9399   46.0442  134.3903 N   0  0  0  0  0  0  0  0  0  0  0  0
   10.5781   46.9291  135.1781 H   0  0  0  0  0  0  0  0  0  0  0  0
    9.7828   45.8244  133.9894 H   0  0  0  0  0  0  0  0  0  0  0  0
   13.8726   45.8892  133.9718 H   0  0  0  0  0  0  0  0  0  0  0  0
    8.6915   42.5580  129.8641 C   0  0  0  0  0  0  0  0  0  0  0  0
    9.4153   43.6579  129.1940 C   0  0  0  0  0  0  0  0  0  0  0  0
    8.7264   44.7434  128.6840 C   0  0  0  0  0  0  0  0  0  0  0  0
    9.3978   45.7806  128.0648 C   0  0  0  0  0  0  0  0  0  0  0  0
   10.7630   45.7912  127.9256 C   0  0  0  0  0  0  0  0  0  0  0  0
   11.4410   46.8275  127.3064 O   0  0  0  0  0  0  0  0  0  0  0  0
   11.4719   44.7187  128.4280 C   0  0  0  0  0  0  0  0  0  0  0  0
   10.7844   43.6794  129.0483 C   0  0  0  0  0  0  0  0  0  0  0  0
   11.7584   47.6199  127.8574 H   0  0  0  0  0  0  0  0  0  0  0  0
  7  8  1  0  0  0
  8  9  2  0  0  0
  8 10  1  0  0  0
 10  6  1  0  0  0
  6 12  1  0  0  0
 12 13  1  0  0  0
 13 14  2  0  0  0
 14 15  1  0  0  0
 15 16  2  0  0  0
 16 17  1  0  0  0
 16 18  1  0  0  0
 18 19  2  0  0  0
  6  2  1  0  0  0
  2  3  2  0  0  0
  2  4  1  0  0  0
  4  1  1  0  0  0
  1 39  1  0  0  0
 39 40  1  0  0  0
 40 41  2  0  0  0
 41 42  1  0  0  0
 42 43  2  0  0  0
 43 44  1  0  0  0
 43 45  1  0  0  0
 45 46  2  0  0  0
  1 21  1  0  0  0
 21 22  2  0  0  0
 21 23  1  0  0  0
 23 25  1  0  0  0
 25 28  1  0  0  0
 28 29  1  0  0  0
 29 30  1  0  0  0
 30 31  1  0  0  0
 31 33  1  0  0  0
 33 34  1  0  0  0
 33 35  2  0  0  0
 25 26  1  0  0  0
 26 27  2  0  0  0
 19 13  1  0  0  0
 46 40  1  0  0  0
 10 11  1  0  0  0
 17 20  1  0  0  0
  4  5  1  0  0  0
 44 47  1  0  0  0
 23 24  1  0  0  0
 31 32  1  0  0  0
 34 36  1  0  0  0
 34 37  1  0  0  0
 35 38  1  0  0  0
M  END
> <minimizedAffinity>
-0.42024

> <CNNscore>
0.2164704651

> <CNNaffinity>
7.3939514160

> <CNN_VS>
1.6005721092

> <CNNaffinity_variance>
0.9776700139

$$$$
[H]N=C(N([H])[H])N([H])C([H])([H])C([H])([H])C([H])([H])[C@@]([H])(C([H])=O)N([H])C(=O)[C@@]([H])(N([H])C(=O)[C@@]([H])(N([H])C(=O)C([H])([H])[H])C([H])([H])c1c([H])c([H])c(O[H])c([H])c1[H])C([H])([H])c1c([H])c([H])c(O[H])c([H])c1[H]


 47 48  0  0  0  0  0  0  0  0999 V2000
    9.0790   47.9484  132.1166 C   0  0  0  0  0  0  0  0  0  0  0  0
    7.9699   45.9108  131.1590 C   0  0  0  0  0  0  0  0  0  0  0  0
    7.6028   45.6274  132.3349 O   0  0  0  0  0  0  0  0  0  0  0  0
    8.7167   47.1008  130.9995 N   0  0  0  0  0  0  0  0  0  0  0  0
    9.0237   47.4086  130.0678 H   0  0  0  0  0  0  0  0  0  0  0  0
    7.6487   45.0617  130.0051 C   0  0  0  0  0  0  0  0  0  0  0  0
    6.8278   47.8236  127.4185 C   0  0  0  0  0  0  0  0  0  0  0  0
    6.8739   47.0384  128.6656 C   0  0  0  0  0  0  0  0  0  0  0  0
    6.2499   47.4361  129.6655 O   0  0  0  0  0  0  0  0  0  0  0  0
    7.6154   45.8131  128.7924 N   0  0  0  0  0  0  0  0  0  0  0  0
    8.1284   45.5213  127.9237 H   0  0  0  0  0  0  0  0  0  0  0  0
    8.3774   43.7812  130.0272 C   0  0  0  0  0  0  0  0  0  0  0  0
    9.8471   43.9410  129.9863 C   0  0  0  0  0  0  0  0  0  0  0  0
   10.6437   43.3589  130.9225 C   0  0  0  0  0  0  0  0  0  0  0  0
   12.0178   43.5481  130.8796 C   0  0  0  0  0  0  0  0  0  0  0  0
   12.6188   44.3228  129.8991 C   0  0  0  0  0  0  0  0  0  0  0  0
   14.0138   44.5160  129.8574 O   0  0  0  0  0  0  0  0  0  0  0  0
   11.7933   44.9040  128.9561 C   0  0  0  0  0  0  0  0  0  0  0  0
   10.4267   44.7142  129.0017 C   0  0  0  0  0  0  0  0  0  0  0  0
   14.3229   45.3354  130.3998 H   0  0  0  0  0  0  0  0  0  0  0  0
    8.6071   49.3376  131.8311 C   0  0  0  0  0  0  0  0  0  0  0  0
    9.2344   50.2851  132.3699 O   0  0  0  0  0  0  0  0  0  0  0  0
    7.5103   49.5605  130.9928 N   0  0  0  0  0  0  0  0  0  0  0  0
    7.0125   48.7235  130.5703 H   0  0  0  0  0  0  0  0  0  0  0  0
    6.9624   50.8603  130.6259 C   0  0  0  0  0  0  0  0  0  0  0  0
    5.4967   50.8631  130.7188 C   0  0  0  0  0  0  0  0  0  0  0  0
    4.8485   50.1018  130.0218 O   0  0  0  0  0  0  0  0  0  0  0  0
    7.4410   51.1091  129.2074 C   0  0  0  0  0  0  0  0  0  0  0  0
    6.7981   52.2673  128.5307 C   0  0  0  0  0  0  0  0  0  0  0  0
    7.6168   52.7170  127.3345 C   0  0  0  0  0  0  0  0  0  0  0  0
    7.3300   54.1144  127.0322 N   0  0  0  0  0  0  0  0  0  0  0  0
    6.8538   54.7332  127.7372 H   0  0  0  0  0  0  0  0  0  0  0  0
    7.6945   54.6412  125.7701 C   0  0  0  0  0  0  0  0  0  0  0  0
    6.8065   54.5098  124.6785 N   0  0  0  0  0  0  0  0  0  0  0  0
    8.8100   55.2225  125.6179 N   0  0  0  0  0  0  0  0  0  0  0  0
    7.1783   54.3636  123.7254 H   0  0  0  0  0  0  0  0  0  0  0  0
    5.7831   54.5637  124.8565 H   0  0  0  0  0  0  0  0  0  0  0  0
    9.4979   55.3445  126.3801 H   0  0  0  0  0  0  0  0  0  0  0  0
   10.5028   47.9080  132.5046 C   0  0  0  0  0  0  0  0  0  0  0  0
   10.8693   46.6860  133.2497 C   0  0  0  0  0  0  0  0  0  0  0  0
   12.1096   46.1005  133.0712 C   0  0  0  0  0  0  0  0  0  0  0  0
   12.4631   44.9630  133.7722 C   0  0  0  0  0  0  0  0  0  0  0  0
   11.6171   44.3625  134.6704 C   0  0  0  0  0  0  0  0  0  0  0  0
   11.9656   43.2231  135.3755 O   0  0  0  0  0  0  0  0  0  0  0  0
   10.3740   44.9299  134.8660 C   0  0  0  0  0  0  0  0  0  0  0  0
   10.0291   46.0747  134.1531 C   0  0  0  0  0  0  0  0  0  0  0  0
   12.4277   43.3117  136.2761 H   0  0  0  0  0  0  0  0  0  0  0  0
  7  8  1  0  0  0
  8  9  2  0  0  0
  8 10  1  0  0  0
 10  6  1  0  0  0
  6 12  1  0  0  0
 12 13  1  0  0  0
 13 14  2  0  0  0
 14 15  1  0  0  0
 15 16  2  0  0  0
 16 17  1  0  0  0
 16 18  1  0  0  0
 18 19  2  0  0  0
  6  2  1  0  0  0
  2  3  2  0  0  0
  2  4  1  0  0  0
  4  1  1  0  0  0
  1 39  1  0  0  0
 39 40  1  0  0  0
 40 41  2  0  0  0
 41 42  1  0  0  0
 42 43  2  0  0  0
 43 44  1  0  0  0
 43 45  1  0  0  0
 45 46  2  0  0  0
  1 21  1  0  0  0
 21 22  2  0  0  0
 21 23  1  0  0  0
 23 25  1  0  0  0
 25 28  1  0  0  0
 28 29  1  0  0  0
 29 30  1  0  0  0
 30 31  1  0  0  0
 31 33  1  0  0  0
 33 34  1  0  0  0
 33 35  2  0  0  0
 25 26  1  0  0  0
 26 27  2  0  0  0
 19 13  1  0  0  0
 46 40  1  0  0  0
 10 11  1  0  0  0
 17 20  1  0  0  0
  4  5  1  0  0  0
 44 47  1  0  0  0
 23 24  1  0  0  0
 31 32  1  0  0  0
 34 36  1  0  0  0
 34 37  1  0  0  0
 35 38  1  0  0  0
M  END
> <minimizedAffinity>
-1.96668

> <CNNscore>
0.2149313539

> <CNNaffinity>
7.2666921616

> <CNN_VS>
1.5618399382

> <CNNaffinity_variance>
0.3649942875

$$$$
[H]N=C(N([H])[H])N([H])C([H])([H])C([H])([H])C([H])([H])[C@@]([H])(C([H])=O)N([H])C(=O)[C@@]([H])(N([H])C(=O)[C@@]([H])(N([H])C(=O)C([H])([H])[H])C([H])([H])c1c([H])c([H])c(O[H])c([H])c1[H])C([H])([H])c1c([H])c([H])c(O[H])c([H])c1[H]


 47 48  0  0  0  0  0  0  0  0999 V2000
   10.1826   48.5268  129.9694 C   0  0  0  0  0  0  0  0  0  0  0  0
   10.3933   48.1531  132.4422 C   0  0  0  0  0  0  0  0  0  0  0  0
   10.4140   49.4100  132.5732 O   0  0  0  0  0  0  0  0  0  0  0  0
   10.2607   47.6570  131.1247 N   0  0  0  0  0  0  0  0  0  0  0  0
   10.2077   46.6459  130.9458 H   0  0  0  0  0  0  0  0  0  0  0  0
   10.5005   47.2379  133.5852 C   0  0  0  0  0  0  0  0  0  0  0  0
    7.2496   45.7623  135.0841 C   0  0  0  0  0  0  0  0  0  0  0  0
    8.4725   46.5658  134.9034 C   0  0  0  0  0  0  0  0  0  0  0  0
    8.8067   47.3820  135.7806 O   0  0  0  0  0  0  0  0  0  0  0  0
    9.3177   46.4557  133.7455 N   0  0  0  0  0  0  0  0  0  0  0  0
    8.9921   45.7573  133.0319 H   0  0  0  0  0  0  0  0  0  0  0  0
   11.8103   46.5656  133.6482 C   0  0  0  0  0  0  0  0  0  0  0  0
   11.7593   45.1419  133.2514 C   0  0  0  0  0  0  0  0  0  0  0  0
   11.3530   44.1827  134.1260 C   0  0  0  0  0  0  0  0  0  0  0  0
   11.3421   42.8500  133.7391 C   0  0  0  0  0  0  0  0  0  0  0  0
   11.7372   42.4539  132.4703 C   0  0  0  0  0  0  0  0  0  0  0  0
   11.7277   41.1005  132.0789 O   0  0  0  0  0  0  0  0  0  0  0  0
   12.1446   43.4428  131.5958 C   0  0  0  0  0  0  0  0  0  0  0  0
   12.1547   44.7676  131.9839 C   0  0  0  0  0  0  0  0  0  0  0  0
   12.6155   40.6176  132.2785 H   0  0  0  0  0  0  0  0  0  0  0  0
    8.7588   48.9421  129.7832 C   0  0  0  0  0  0  0  0  0  0  0  0
    8.4248   50.0759  130.2127 O   0  0  0  0  0  0  0  0  0  0  0  0
    7.8448   48.0932  129.1512 N   0  0  0  0  0  0  0  0  0  0  0  0
    8.1788   47.1435  128.8146 H   0  0  0  0  0  0  0  0  0  0  0  0
    6.4394   48.3840  128.8973 C   0  0  0  0  0  0  0  0  0  0  0  0
    6.0897   49.7392  129.3424 C   0  0  0  0  0  0  0  0  0  0  0  0
    4.9810   49.9543  129.8009 O   0  0  0  0  0  0  0  0  0  0  0  0
    5.6682   47.3210  129.6577 C   0  0  0  0  0  0  0  0  0  0  0  0
    6.3801   46.0227  129.8014 C   0  0  0  0  0  0  0  0  0  0  0  0
    6.9838   45.8879  131.1873 C   0  0  0  0  0  0  0  0  0  0  0  0
    8.2356   45.1433  131.1144 N   0  0  0  0  0  0  0  0  0  0  0  0
    9.0965   45.5737  130.6898 H   0  0  0  0  0  0  0  0  0  0  0  0
    8.2884   43.8220  131.6189 C   0  0  0  0  0  0  0  0  0  0  0  0
    8.2578   42.7322  130.7197 N   0  0  0  0  0  0  0  0  0  0  0  0
    8.3584   43.6166  132.8672 N   0  0  0  0  0  0  0  0  0  0  0  0
    7.7723   41.8589  130.9835 H   0  0  0  0  0  0  0  0  0  0  0  0
    8.7303   42.8301  129.7982 H   0  0  0  0  0  0  0  0  0  0  0  0
    8.3816   44.3753  133.5694 H   0  0  0  0  0  0  0  0  0  0  0  0
   10.7762   47.9866  128.7304 C   0  0  0  0  0  0  0  0  0  0  0  0
   10.5554   46.5353  128.5631 C   0  0  0  0  0  0  0  0  0  0  0  0
   11.5962   45.6420  128.7410 C   0  0  0  0  0  0  0  0  0  0  0  0
   11.3948   44.2823  128.5959 C   0  0  0  0  0  0  0  0  0  0  0  0
   10.1705   43.7525  128.2742 C   0  0  0  0  0  0  0  0  0  0  0  0
    9.9626   42.3915  128.1277 O   0  0  0  0  0  0  0  0  0  0  0  0
    9.1163   44.6250  128.0930 C   0  0  0  0  0  0  0  0  0  0  0  0
    9.3320   45.9922  128.2404 C   0  0  0  0  0  0  0  0  0  0  0  0
    9.6935   41.8350  128.9341 H   0  0  0  0  0  0  0  0  0  0  0  0
  7  8  1  0  0  0
  8  9  2  0  0  0
  8 10  1  0  0  0
 10  6  1  0  0  0
  6 12  1  0  0  0
 12 13  1  0  0  0
 13 14  2  0  0  0
 14 15  1  0  0  0
 15 16  2  0  0  0
 16 17  1  0  0  0
 16 18  1  0  0  0
 18 19  2  0  0  0
  6  2  1  0  0  0
  2  3  2  0  0  0
  2  4  1  0  0  0
  4  1  1  0  0  0
  1 39  1  0  0  0
 39 40  1  0  0  0
 40 41  2  0  0  0
 41 42  1  0  0  0
 42 43  2  0  0  0
 43 44  1  0  0  0
 43 45  1  0  0  0
 45 46  2  0  0  0
  1 21  1  0  0  0
 21 22  2  0  0  0
 21 23  1  0  0  0
 23 25  1  0  0  0
 25 28  1  0  0  0
 28 29  1  0  0  0
 29 30  1  0  0  0
 30 31  1  0  0  0
 31 33  1  0  0  0
 33 34  1  0  0  0
 33 35  2  0  0  0
 25 26  1  0  0  0
 26 27  2  0  0  0
 19 13  1  0  0  0
 46 40  1  0  0  0
 10 11  1  0  0  0
 17 20  1  0  0  0
  4  5  1  0  0  0
 44 47  1  0  0  0
 23 24  1  0  0  0
 31 32  1  0  0  0
 34 36  1  0  0  0
 34 37  1  0  0  0
 35 38  1  0  0  0
M  END
> <minimizedAffinity>
-0.87054

> <CNNscore>
0.2071788311

> <CNNaffinity>
7.1610817909

> <CNN_VS>
1.4836245775

> <CNNaffinity_variance>
0.7985724211

$$$$
[H]OC(=O)c1c(O[H])c([H])c2c(O[H])c([H])c(O[H])c([H])c2c1[H]


 20 21  0  0  0  0  0  0  0  0999 V2000
    9.7169   46.4286  131.4205 C   0  0  0  0  0  0  0  0  0  0  0  0
    9.4878   47.8070  131.2358 C   0  0  0  0  0  0  0  0  0  0  0  0
    8.4228   48.2763  130.5245 C   0  0  0  0  0  0  0  0  0  0  0  0
    8.1981   49.6382  130.3429 C   0  0  0  0  0  0  0  0  0  0  0  0
    7.1276   50.1233  129.6275 C   0  0  0  0  0  0  0  0  0  0  0  0
    6.9158   51.4907  129.4543 O   0  0  0  0  0  0  0  0  0  0  0  0
    6.2730   49.1908  129.0892 C   0  0  0  0  0  0  0  0  0  0  0  0
    6.4897   47.8173  129.2658 C   0  0  0  0  0  0  0  0  0  0  0  0
    5.5956   46.9493  128.6999 O   0  0  0  0  0  0  0  0  0  0  0  0
    7.5692   47.3335  129.9870 C   0  0  0  0  0  0  0  0  0  0  0  0
    7.7749   45.9884  130.1557 C   0  0  0  0  0  0  0  0  0  0  0  0
    8.8769   45.4920  130.8920 C   0  0  0  0  0  0  0  0  0  0  0  0
    9.0165   44.1365  131.0175 O   0  0  0  0  0  0  0  0  0  0  0  0
    6.3803   52.0638  130.0680 H   0  0  0  0  0  0  0  0  0  0  0  0
    5.6086   45.9559  128.7331 H   0  0  0  0  0  0  0  0  0  0  0  0
    9.6539   43.5700  131.4503 H   0  0  0  0  0  0  0  0  0  0  0  0
   11.0790   46.3925  133.5011 O   0  0  0  0  0  0  0  0  0  0  0  0
   10.8815   46.0522  132.1951 C   0  0  0  0  0  0  0  0  0  0  0  0
   11.8100   45.3514  131.6478 O   0  0  0  0  0  0  0  0  0  0  0  0
   11.0235   45.7522  134.2709 H   0  0  0  0  0  0  0  0  0  0  0  0
 17 18  1  0  0  0
 18 19  2  0  0  0
 18  1  1  0  0  0
  1  2  2  0  0  0
  2  3  1  0  0  0
  3  4  2  0  0  0
  4  5  1  0  0  0
  5  6  1  0  0  0
  5  7  2  0  0  0
  7  8  1  0  0  0
  8  9  1  0  0  0
  8 10  2  0  0  0
 10 11  1  0  0  0
 11 12  2  0  0  0
 12 13  1  0  0  0
 12  1  1  0  0  0
 10  3  1  0  0  0
 17 20  1  0  0  0
  6 14  1  0  0  0
  9 15  1  0  0  0
 13 16  1  0  0  0
M  END
> <minimizedAffinity>
-8.12462

> <CNNscore>
0.6286143064

> <CNNaffinity>
5.7324194908

> <CNN_VS>
3.6034808159

> <CNNaffinity_variance>
0.8188403249

$$$$
[H]OC(=O)c1c(O[H])c([H])c2c(O[H])c([H])c(O[H])c([H])c2c1[H]


 20 21  0  0  0  0  0  0  0  0999 V2000
    7.2563   48.8698  129.8743 C   0  0  0  0  0  0  0  0  0  0  0  0
    8.3033   48.7041  130.8033 C   0  0  0  0  0  0  0  0  0  0  0  0
    8.8477   47.4827  131.0722 C   0  0  0  0  0  0  0  0  0  0  0  0
    9.8817   47.3208  131.9902 C   0  0  0  0  0  0  0  0  0  0  0  0
   10.4387   46.0941  132.2697 C   0  0  0  0  0  0  0  0  0  0  0  0
   11.4744   45.9479  133.1921 O   0  0  0  0  0  0  0  0  0  0  0  0
    9.9228   45.0147  131.5927 C   0  0  0  0  0  0  0  0  0  0  0  0
    8.8818   45.1663  130.6665 C   0  0  0  0  0  0  0  0  0  0  0  0
    8.4203   44.0450  130.0316 O   0  0  0  0  0  0  0  0  0  0  0  0
    8.3240   46.4036  130.3883 C   0  0  0  0  0  0  0  0  0  0  0  0
    7.3058   46.5443  129.4808 C   0  0  0  0  0  0  0  0  0  0  0  0
    6.7346   47.8074  129.1952 C   0  0  0  0  0  0  0  0  0  0  0  0
    5.7213   47.8693  128.2775 O   0  0  0  0  0  0  0  0  0  0  0  0
   12.4436   46.0014  132.9695 H   0  0  0  0  0  0  0  0  0  0  0  0
    7.6948   43.9850  129.3548 H   0  0  0  0  0  0  0  0  0  0  0  0
    5.1876   48.5785  127.9218 H   0  0  0  0  0  0  0  0  0  0  0  0
    7.1548   51.0369  128.6582 O   0  0  0  0  0  0  0  0  0  0  0  0
    6.7605   50.2159  129.6735 C   0  0  0  0  0  0  0  0  0  0  0  0
    5.8908   50.7011  130.4864 O   0  0  0  0  0  0  0  0  0  0  0  0
    6.5844   51.2834  127.8711 H   0  0  0  0  0  0  0  0  0  0  0  0
 17 18  1  0  0  0
 18 19  2  0  0  0
 18  1  1  0  0  0
  1  2  2  0  0  0
  2  3  1  0  0  0
  3  4  2  0  0  0
  4  5  1  0  0  0
  5  6  1  0  0  0
  5  7  2  0  0  0
  7  8  1  0  0  0
  8  9  1  0  0  0
  8 10  2  0  0  0
 10 11  1  0  0  0
 11 12  2  0  0  0
 12 13  1  0  0  0
 12  1  1  0  0  0
 10  3  1  0  0  0
 17 20  1  0  0  0
  6 14  1  0  0  0
  9 15  1  0  0  0
 13 16  1  0  0  0
M  END
> <minimizedAffinity>
-8.29740

> <CNNscore>
0.5437532663

> <CNNaffinity>
5.5669236183

> <CNN_VS>
3.0270328522

> <CNNaffinity_variance>
0.3817106187

$$$$
[H]OC(=O)c1c(O[H])c([H])c2c(O[H])c([H])c(O[H])c([H])c2c1[H]


 20 21  0  0  0  0  0  0  0  0999 V2000
    8.9233   45.1076  130.0612 C   0  0  0  0  0  0  0  0  0  0  0  0
    8.2589   46.1549  129.3916 C   0  0  0  0  0  0  0  0  0  0  0  0
    8.3125   47.4453  129.8301 C   0  0  0  0  0  0  0  0  0  0  0  0
    7.6555   48.4786  129.1676 C   0  0  0  0  0  0  0  0  0  0  0  0
    7.7024   49.7838  129.6003 C   0  0  0  0  0  0  0  0  0  0  0  0
    7.0388   50.8082  128.9257 O   0  0  0  0  0  0  0  0  0  0  0  0
    8.4382   50.0306  130.7349 C   0  0  0  0  0  0  0  0  0  0  0  0
    9.1036   48.9979  131.4097 C   0  0  0  0  0  0  0  0  0  0  0  0
    9.8166   49.3210  132.5325 O   0  0  0  0  0  0  0  0  0  0  0  0
    9.0535   47.6850  130.9702 C   0  0  0  0  0  0  0  0  0  0  0  0
    9.7071   46.6799  131.6356 C   0  0  0  0  0  0  0  0  0  0  0  0
    9.6572   45.3381  131.1883 C   0  0  0  0  0  0  0  0  0  0  0  0
   10.3350   44.3892  131.9045 O   0  0  0  0  0  0  0  0  0  0  0  0
    7.4343   51.3530  128.1919 H   0  0  0  0  0  0  0  0  0  0  0  0
   10.3386   48.7101  133.1177 H   0  0  0  0  0  0  0  0  0  0  0  0
   10.4540   43.4448  131.8129 H   0  0  0  0  0  0  0  0  0  0  0  0
    9.2169   43.4257  128.2527 O   0  0  0  0  0  0  0  0  0  0  0  0
    8.7922   43.7788  129.4998 C   0  0  0  0  0  0  0  0  0  0  0  0
    8.2445   42.8460  130.1947 O   0  0  0  0  0  0  0  0  0  0  0  0
   10.0127   42.8449  128.0655 H   0  0  0  0  0  0  0  0  0  0  0  0
 17 18  1  0  0  0
 18 19  2  0  0  0
 18  1  1  0  0  0
  1  2  2  0  0  0
  2  3  1  0  0  0
  3  4  2  0  0  0
  4  5  1  0  0  0
  5  6  1  0  0  0
  5  7  2  0  0  0
  7  8  1  0  0  0
  8  9  1  0  0  0
  8 10  2  0  0  0
 10 11  1  0  0  0
 11 12  2  0  0  0
 12 13  1  0  0  0
 12  1  1  0  0  0
 10  3  1  0  0  0
 17 20  1  0  0  0
  6 14  1  0  0  0
  9 15  1  0  0  0
 13 16  1  0  0  0
M  END
> <minimizedAffinity>
-8.26577

> <CNNscore>
0.4699154496

> <CNNaffinity>
5.5864052773

> <CNN_VS>
2.6251380444

> <CNNaffinity_variance>
0.8834568262

$$$$
[H]OC(=O)c1c(O[H])c([H])c2c(O[H])c([H])c(O[H])c([H])c2c1[H]


 20 21  0  0  0  0  0  0  0  0999 V2000
    9.1976   45.7026  132.5473 C   0  0  0  0  0  0  0  0  0  0  0  0
    8.2626   45.6822  131.4928 C   0  0  0  0  0  0  0  0  0  0  0  0
    7.9158   46.8103  130.8090 C   0  0  0  0  0  0  0  0  0  0  0  0
    6.9919   46.7885  129.7679 C   0  0  0  0  0  0  0  0  0  0  0  0
    6.6344   47.9197  129.0710 C   0  0  0  0  0  0  0  0  0  0  0  0
    5.7071   47.8818  128.0301 O   0  0  0  0  0  0  0  0  0  0  0  0
    7.2380   49.0944  129.4521 C   0  0  0  0  0  0  0  0  0  0  0  0
    8.1695   49.1279  130.4989 C   0  0  0  0  0  0  0  0  0  0  0  0
    8.7285   50.3349  130.8211 O   0  0  0  0  0  0  0  0  0  0  0  0
    8.5264   47.9862  131.1978 C   0  0  0  0  0  0  0  0  0  0  0  0
    9.4385   48.0265  132.2208 C   0  0  0  0  0  0  0  0  0  0  0  0
    9.8045   46.8613  132.9360 C   0  0  0  0  0  0  0  0  0  0  0  0
   10.7216   46.9798  133.9447 O   0  0  0  0  0  0  0  0  0  0  0  0
    5.9352   47.7285  127.0729 H   0  0  0  0  0  0  0  0  0  0  0  0
    9.3981   50.5245  131.5310 H   0  0  0  0  0  0  0  0  0  0  0  0
   11.1215   46.3635  134.5568 H   0  0  0  0  0  0  0  0  0  0  0  0
   10.5982   44.1978  133.9471 O   0  0  0  0  0  0  0  0  0  0  0  0
    9.4846   44.4407  133.1978 C   0  0  0  0  0  0  0  0  0  0  0  0
    8.6574   43.4633  133.0830 O   0  0  0  0  0  0  0  0  0  0  0  0
   10.6029   44.1012  134.9452 H   0  0  0  0  0  0  0  0  0  0  0  0
 17 18  1  0  0  0
 18 19  2  0  0  0
 18  1  1  0  0  0
  1  2  2  0  0  0
  2  3  1  0  0  0
  3  4  2  0  0  0
  4  5  1  0  0  0
  5  6  1  0  0  0
  5  7  2  0  0  0
  7  8  1  0  0  0
  8  9  1  0  0  0
  8 10  2  0  0  0
 10 11  1  0  0  0
 11 12  2  0  0  0
 12 13  1  0  0  0
 12  1  1  0  0  0
 10  3  1  0  0  0
 17 20  1  0  0  0
  6 14  1  0  0  0
  9 15  1  0  0  0
 13 16  1  0  0  0
M  END
> <minimizedAffinity>
-8.05838

> <CNNscore>
0.4145132899

> <CNNaffinity>
5.5437536240

> <CNN_VS>
2.2979595661

> <CNNaffinity_variance>
0.6549989581

$$$$
[H]OC(=O)c1c(O[H])c([H])c2c(O[H])c([H])c(O[H])c([H])c2c1[H]


 20 21  0  0  0  0  0  0  0  0999 V2000
   10.8826   44.2202  131.5192 C   0  0  0  0  0  0  0  0  0  0  0  0
   10.9529   45.4171  132.2603 C   0  0  0  0  0  0  0  0  0  0  0  0
   10.3428   46.5641  131.8450 C   0  0  0  0  0  0  0  0  0  0  0  0
   10.4134   47.7455  132.5781 C   0  0  0  0  0  0  0  0  0  0  0  0
    9.8023   48.9086  132.1693 C   0  0  0  0  0  0  0  0  0  0  0  0
    9.8821   50.0844  132.9148 O   0  0  0  0  0  0  0  0  0  0  0  0
    9.1062   48.8553  130.9852 C   0  0  0  0  0  0  0  0  0  0  0  0
    9.0286   47.6712  130.2392 C   0  0  0  0  0  0  0  0  0  0  0  0
    8.3171   47.6956  129.0702 O   0  0  0  0  0  0  0  0  0  0  0  0
    9.6457   46.5025  130.6548 C   0  0  0  0  0  0  0  0  0  0  0  0
    9.5655   45.3478  129.9197 C   0  0  0  0  0  0  0  0  0  0  0  0
   10.1951   44.1529  130.3424 C   0  0  0  0  0  0  0  0  0  0  0  0
   10.0709   43.0400  129.5558 O   0  0  0  0  0  0  0  0  0  0  0  0
    9.2373   50.3498  133.6258 H   0  0  0  0  0  0  0  0  0  0  0  0
    8.1687   46.9470  128.4333 H   0  0  0  0  0  0  0  0  0  0  0  0
   10.3909   42.1411  129.6187 H   0  0  0  0  0  0  0  0  0  0  0  0
   12.7180   43.1333  132.7980 O   0  0  0  0  0  0  0  0  0  0  0  0
   11.5713   43.0675  132.0624 C   0  0  0  0  0  0  0  0  0  0  0  0
   11.0990   41.8895  131.8573 O   0  0  0  0  0  0  0  0  0  0  0  0
   12.7725   42.9603  133.7843 H   0  0  0  0  0  0  0  0  0  0  0  0
 17 18  1  0  0  0
 18 19  2  0  0  0
 18  1  1  0  0  0
  1  2  2  0  0  0
  2  3  1  0  0  0
  3  4  2  0  0  0
  4  5  1  0  0  0
  5  6  1  0  0  0
  5  7  2  0  0  0
  7  8  1  0  0  0
  8  9  1  0  0  0
  8 10  2  0  0  0
 10 11  1  0  0  0
 11 12  2  0  0  0
 12 13  1  0  0  0
 12  1  1  0  0  0
 10  3  1  0  0  0
 17 20  1  0  0  0
  6 14  1  0  0  0
  9 15  1  0  0  0
 13 16  1  0  0  0
M  END
> <minimizedAffinity>
-7.11049

> <CNNscore>
0.3958174288

> <CNNaffinity>
5.5562562943

> <CNN_VS>
2.1992630959

> <CNNaffinity_variance>
0.9658396840

$$$$
[H]OC(=O)c1c(O[H])c([H])c2c(O[H])c([H])c(O[H])c([H])c2c1[H]


 20 21  0  0  0  0  0  0  0  0999 V2000
   10.3431   44.4644  130.7559 C   0  0  0  0  0  0  0  0  0  0  0  0
   10.4426   45.8382  131.0551 C   0  0  0  0  0  0  0  0  0  0  0  0
    9.5058   46.7398  130.6429 C   0  0  0  0  0  0  0  0  0  0  0  0
    9.6057   48.0965  130.9391 C   0  0  0  0  0  0  0  0  0  0  0  0
    8.6673   49.0152  130.5288 C   0  0  0  0  0  0  0  0  0  0  0  0
    8.7812   50.3713  130.8335 O   0  0  0  0  0  0  0  0  0  0  0  0
    7.6071   48.5297  129.8008 C   0  0  0  0  0  0  0  0  0  0  0  0
    7.4967   47.1659  129.4969 C   0  0  0  0  0  0  0  0  0  0  0  0
    6.4128   46.7574  128.7678 O   0  0  0  0  0  0  0  0  0  0  0  0
    8.4442   46.2444  129.9121 C   0  0  0  0  0  0  0  0  0  0  0  0
    8.3295   44.9116  129.6111 C   0  0  0  0  0  0  0  0  0  0  0  0
    9.2964   43.9687  130.0344 C   0  0  0  0  0  0  0  0  0  0  0  0
    9.1143   42.6553  129.6957 O   0  0  0  0  0  0  0  0  0  0  0  0
    8.4073   50.8024  131.6496 H   0  0  0  0  0  0  0  0  0  0  0  0
    6.1915   45.8342  128.4731 H   0  0  0  0  0  0  0  0  0  0  0  0
    9.6076   41.8519  129.8557 H   0  0  0  0  0  0  0  0  0  0  0  0
   12.7018   43.9875  131.3841 O   0  0  0  0  0  0  0  0  0  0  0  0
   11.3998   43.6047  131.2483 C   0  0  0  0  0  0  0  0  0  0  0  0
   11.1286   42.3951  131.5890 O   0  0  0  0  0  0  0  0  0  0  0  0
   13.1582   44.1524  132.2617 H   0  0  0  0  0  0  0  0  0  0  0  0
 17 18  1  0  0  0
 18 19  2  0  0  0
 18  1  1  0  0  0
  1  2  2  0  0  0
  2  3  1  0  0  0
  3  4  2  0  0  0
  4  5  1  0  0  0
  5  6  1  0  0  0
  5  7  2  0  0  0
  7  8  1  0  0  0
  8  9  1  0  0  0
  8 10  2  0  0  0
 10 11  1  0  0  0
 11 12  2  0  0  0
 12 13  1  0  0  0
 12  1  1  0  0  0
 10  3  1  0  0  0
 17 20  1  0  0  0
  6 14  1  0  0  0
  9 15  1  0  0  0
 13 16  1  0  0  0
M  END
> <minimizedAffinity>
-7.83280

> <CNNscore>
0.3791880310

> <CNNaffinity>
5.5401663780

> <CNN_VS>
2.1007647514

> <CNNaffinity_variance>
0.7757192254

$$$$
[H]OC(=O)c1c(O[H])c([H])c2c(O[H])c([H])c(O[H])c([H])c2c1[H]


 20 21  0  0  0  0  0  0  0  0999 V2000
    9.5198   47.8704  131.6217 C   0  0  0  0  0  0  0  0  0  0  0  0
   10.2847   46.7415  131.2652 C   0  0  0  0  0  0  0  0  0  0  0  0
   10.6752   45.8109  132.1827 C   0  0  0  0  0  0  0  0  0  0  0  0
   11.4309   44.6964  131.8289 C   0  0  0  0  0  0  0  0  0  0  0  0
   11.8307   43.7512  132.7453 C   0  0  0  0  0  0  0  0  0  0  0  0
   12.5876   42.6399  132.3754 O   0  0  0  0  0  0  0  0  0  0  0  0
   11.4462   43.9561  134.0491 C   0  0  0  0  0  0  0  0  0  0  0  0
   10.6854   45.0745  134.4164 C   0  0  0  0  0  0  0  0  0  0  0  0
   10.3404   45.2105  135.7339 O   0  0  0  0  0  0  0  0  0  0  0  0
   10.2852   46.0237  133.4900 C   0  0  0  0  0  0  0  0  0  0  0  0
    9.5409   47.1154  133.8566 C   0  0  0  0  0  0  0  0  0  0  0  0
    9.1311   48.0863  132.9118 C   0  0  0  0  0  0  0  0  0  0  0  0
    8.3901   49.1490  133.3525 O   0  0  0  0  0  0  0  0  0  0  0  0
   12.2077   41.7652  132.0886 H   0  0  0  0  0  0  0  0  0  0  0  0
    9.8092   45.9399  136.1508 H   0  0  0  0  0  0  0  0  0  0  0  0
    8.0041   49.9136  132.9273 H   0  0  0  0  0  0  0  0  0  0  0  0
    9.0672   50.1404  130.7120 O   0  0  0  0  0  0  0  0  0  0  0  0
    9.1656   48.7887  130.5590 C   0  0  0  0  0  0  0  0  0  0  0  0
    8.9213   48.3346  129.3813 O   0  0  0  0  0  0  0  0  0  0  0  0
    9.7207   50.8044  130.3409 H   0  0  0  0  0  0  0  0  0  0  0  0
 17 18  1  0  0  0
 18 19  2  0  0  0
 18  1  1  0  0  0
  1  2  2  0  0  0
  2  3  1  0  0  0
  3  4  2  0  0  0
  4  5  1  0  0  0
  5  6  1  0  0  0
  5  7  2  0  0  0
  7  8  1  0  0  0
  8  9  1  0  0  0
  8 10  2  0  0  0
 10 11  1  0  0  0
 11 12  2  0  0  0
 12 13  1  0  0  0
 12  1  1  0  0  0
 10  3  1  0  0  0
 17 20  1  0  0  0
  6 14  1  0  0  0
  9 15  1  0  0  0
 13 16  1  0  0  0
M  END
> <minimizedAffinity>
-5.29202

> <CNNscore>
0.3487837911

> <CNNaffinity>
5.5302000046

> <CNN_VS>
1.9288440943

> <CNNaffinity_variance>
1.3676834106

$$$$
[H]OC(=O)c1c(O[H])c([H])c2c(O[H])c([H])c(O[H])c([H])c2c1[H]


 20 21  0  0  0  0  0  0  0  0999 V2000
   11.1146   44.6082  132.0240 C   0  0  0  0  0  0  0  0  0  0  0  0
   10.3019   45.0462  130.9590 C   0  0  0  0  0  0  0  0  0  0  0  0
    9.8150   46.3187  130.8940 C   0  0  0  0  0  0  0  0  0  0  0  0
    9.0123   46.7496  129.8414 C   0  0  0  0  0  0  0  0  0  0  0  0
    8.5154   48.0304  129.7650 C   0  0  0  0  0  0  0  0  0  0  0  0
    7.7124   48.4474  128.7039 O   0  0  0  0  0  0  0  0  0  0  0  0
    8.8503   48.8831  130.7899 C   0  0  0  0  0  0  0  0  0  0  0  0
    9.6577   48.4598  131.8546 C   0  0  0  0  0  0  0  0  0  0  0  0
    9.9484   49.3658  132.8383 O   0  0  0  0  0  0  0  0  0  0  0  0
   10.1557   47.1690  131.9272 C   0  0  0  0  0  0  0  0  0  0  0  0
   10.9451   46.7618  132.9718 C   0  0  0  0  0  0  0  0  0  0  0  0
   11.4549   45.4437  133.0478 C   0  0  0  0  0  0  0  0  0  0  0  0
   12.2359   45.1104  134.1210 O   0  0  0  0  0  0  0  0  0  0  0  0
    8.0531   48.8510  127.8596 H   0  0  0  0  0  0  0  0  0  0  0  0
   10.5017   49.2232  133.6517 H   0  0  0  0  0  0  0  0  0  0  0  0
   12.6856   44.3122  134.3949 H   0  0  0  0  0  0  0  0  0  0  0  0
   12.7008   42.7806  132.5978 O   0  0  0  0  0  0  0  0  0  0  0  0
   11.5713   43.2342  131.9824 C   0  0  0  0  0  0  0  0  0  0  0  0
   10.8919   42.3577  131.3321 O   0  0  0  0  0  0  0  0  0  0  0  0
   12.7096   42.1965  133.4129 H   0  0  0  0  0  0  0  0  0  0  0  0
 17 18  1  0  0  0
 18 19  2  0  0  0
 18  1  1  0  0  0
  1  2  2  0  0  0
  2  3  1  0  0  0
  3  4  2  0  0  0
  4  5  1  0  0  0
  5  6  1  0  0  0
  5  7  2  0  0  0
  7  8  1  0  0  0
  8  9  1  0  0  0
  8 10  2  0  0  0
 10 11  1  0  0  0
 11 12  2  0  0  0
 12 13  1  0  0  0
 12  1  1  0  0  0
 10  3  1  0  0  0
 17 20  1  0  0  0
  6 14  1  0  0  0
  9 15  1  0  0  0
 13 16  1  0  0  0
M  END
> <minimizedAffinity>
-7.40079

> <CNNscore>
0.3472852707

> <CNNaffinity>
5.4497132301

> <CNN_VS>
1.8926051855

> <CNNaffinity_variance>
0.7133933902

$$$$
[H]OC(=O)c1c(O[H])c([H])c2c(O[H])c([H])c(O[H])c([H])c2c1[H]


 20 21  0  0  0  0  0  0  0  0999 V2000
    8.5809   48.2756  130.7118 C   0  0  0  0  0  0  0  0  0  0  0  0
    8.2206   47.0354  130.1472 C   0  0  0  0  0  0  0  0  0  0  0  0
    8.5848   45.8484  130.7119 C   0  0  0  0  0  0  0  0  0  0  0  0
    8.2282   44.6243  130.1529 C   0  0  0  0  0  0  0  0  0  0  0  0
    8.5896   43.4207  130.7132 C   0  0  0  0  0  0  0  0  0  0  0  0
    8.2247   42.2023  130.1413 O   0  0  0  0  0  0  0  0  0  0  0  0
    9.3312   43.4775  131.8692 C   0  0  0  0  0  0  0  0  0  0  0  0
    9.6957   44.7043  132.4406 C   0  0  0  0  0  0  0  0  0  0  0  0
   10.4347   44.6807  133.5924 O   0  0  0  0  0  0  0  0  0  0  0  0
    9.3295   45.9138  131.8727 C   0  0  0  0  0  0  0  0  0  0  0  0
    9.6897   47.1103  132.4373 C   0  0  0  0  0  0  0  0  0  0  0  0
    9.3166   48.3469  131.8588 C   0  0  0  0  0  0  0  0  0  0  0  0
    9.7131   49.5002  132.4797 O   0  0  0  0  0  0  0  0  0  0  0  0
    7.3872   41.7059  130.3507 H   0  0  0  0  0  0  0  0  0  0  0  0
   10.7693   45.4567  134.1159 H   0  0  0  0  0  0  0  0  0  0  0  0
    9.5932   50.4307  132.2952 H   0  0  0  0  0  0  0  0  0  0  0  0
    8.1677   50.7231  130.5545 O   0  0  0  0  0  0  0  0  0  0  0  0
    8.1357   49.4683  130.0208 C   0  0  0  0  0  0  0  0  0  0  0  0
    7.6742   49.3753  128.8245 O   0  0  0  0  0  0  0  0  0  0  0  0
    8.8039   51.4454  130.2731 H   0  0  0  0  0  0  0  0  0  0  0  0
 17 18  1  0  0  0
 18 19  2  0  0  0
 18  1  1  0  0  0
  1  2  2  0  0  0
  2  3  1  0  0  0
  3  4  2  0  0  0
  4  5  1  0  0  0
  5  6  1  0  0  0
  5  7  2  0  0  0
  7  8  1  0  0  0
  8  9  1  0  0  0
  8 10  2  0  0  0
 10 11  1  0  0  0
 11 12  2  0  0  0
 12 13  1  0  0  0
 12  1  1  0  0  0
 10  3  1  0  0  0
 17 20  1  0  0  0
  6 14  1  0  0  0
  9 15  1  0  0  0
 13 16  1  0  0  0
M  END
> <minimizedAffinity>
-7.40042

> <CNNscore>
0.3382043242

> <CNNaffinity>
5.5839257240

> <CNN_VS>
1.8885078430

> <CNNaffinity_variance>
0.9985558391

$$$$
[H]c1c([H])c([H])c2c(c1[H])c1c3c(c4c5c([H])c([H])c([H])c([H])c5n5c4c1n2[C@@]1(C([H])([H])[H])O[C@]5([H])C([H])([H])[C@@]([H])(N([H])C([H])([H])[H])[C@@]1([H])OC([H])([H])[H])C(=O)N([H])C3([H])[H]


 37 44  0  0  0  0  0  0  0  0999 V2000
   10.4408   44.6901  133.9187 C   0  0  0  0  0  0  0  0  0  0  0  0
   10.7607   46.1057  134.1109 C   0  0  0  0  0  0  0  0  0  0  0  0
   11.5341   46.6858  132.9938 C   0  0  0  0  0  0  0  0  0  0  0  0
   12.1262   45.9406  132.1001 O   0  0  0  0  0  0  0  0  0  0  0  0
   11.5981   44.7336  131.6497 C   0  0  0  0  0  0  0  0  0  0  0  0
   12.8532   44.0773  131.0592 C   0  0  0  0  0  0  0  0  0  0  0  0
   11.0991   43.9615  132.7810 C   0  0  0  0  0  0  0  0  0  0  0  0
   10.6082   45.0384  130.6017 N   0  0  0  0  0  0  0  0  0  0  0  0
   10.2224   44.2601  129.5923 C   0  0  0  0  0  0  0  0  0  0  0  0
   10.5526   42.9857  129.2234 C   0  0  0  0  0  0  0  0  0  0  0  0
    9.9996   42.3876  128.1133 C   0  0  0  0  0  0  0  0  0  0  0  0
    9.0723   43.0627  127.3134 C   0  0  0  0  0  0  0  0  0  0  0  0
    8.7406   44.3298  127.6766 C   0  0  0  0  0  0  0  0  0  0  0  0
    9.2973   44.9144  128.7831 C   0  0  0  0  0  0  0  0  0  0  0  0
    9.1161   46.1533  129.3387 C   0  0  0  0  0  0  0  0  0  0  0  0
    8.3265   47.2524  128.9936 C   0  0  0  0  0  0  0  0  0  0  0  0
    7.3906   47.4328  127.8603 C   0  0  0  0  0  0  0  0  0  0  0  0
    6.8428   48.7441  127.9743 N   0  0  0  0  0  0  0  0  0  0  0  0
    7.4107   49.3656  129.1319 C   0  0  0  0  0  0  0  0  0  0  0  0
    7.0993   50.5136  129.4550 O   0  0  0  0  0  0  0  0  0  0  0  0
    8.3269   48.4244  129.7483 C   0  0  0  0  0  0  0  0  0  0  0  0
    9.1437   48.4513  130.8561 C   0  0  0  0  0  0  0  0  0  0  0  0
    9.4099   49.3883  131.8381 C   0  0  0  0  0  0  0  0  0  0  0  0
    8.9537   50.6579  132.0564 C   0  0  0  0  0  0  0  0  0  0  0  0
    9.4159   51.3613  133.1514 C   0  0  0  0  0  0  0  0  0  0  0  0
   10.3220   50.8012  134.0152 C   0  0  0  0  0  0  0  0  0  0  0  0
   10.7907   49.5225  133.8078 C   0  0  0  0  0  0  0  0  0  0  0  0
   10.3273   48.8344  132.7213 C   0  0  0  0  0  0  0  0  0  0  0  0
   10.6157   47.6178  132.3090 N   0  0  0  0  0  0  0  0  0  0  0  0
    9.9349   47.3398  131.1950 C   0  0  0  0  0  0  0  0  0  0  0  0
    9.9220   46.1854  130.4309 C   0  0  0  0  0  0  0  0  0  0  0  0
    6.1459   49.1569  127.3108 H   0  0  0  0  0  0  0  0  0  0  0  0
    8.3499   45.8223  134.2448 C   0  0  0  0  0  0  0  0  0  0  0  0
    8.9674   44.5780  133.8247 N   0  0  0  0  0  0  0  0  0  0  0  0
    8.6669   44.4315  132.8373 H   0  0  0  0  0  0  0  0  0  0  0  0
   10.2104   42.9314  132.4818 O   0  0  0  0  0  0  0  0  0  0  0  0
   10.8418   41.7190  132.2327 C   0  0  0  0  0  0  0  0  0  0  0  0
 33 34  1  0  0  0
 34  1  1  0  0  0
  1  2  1  0  0  0
  2  3  1  0  0  0
  3  4  1  0  0  0
  4  5  1  0  0  0
  5  6  1  0  0  0
  5  7  1  0  0  0
  7 36  1  0  0  0
 36 37  1  0  0  0
  5  8  1  0  0  0
  8  9  1  0  0  0
  9 10  2  0  0  0
 10 11  1  0  0  0
 11 12  2  0  0  0
 12 13  1  0  0  0
 13 14  2  0  0  0
 14 15  1  0  0  0
 15 16  2  0  0  0
 16 17  1  0  0  0
 17 18  1  0  0  0
 18 19  1  0  0  0
 19 20  2  0  0  0
 19 21  1  0  0  0
 21 22  2  0  0  0
 22 23  1  0  0  0
 23 24  2  0  0  0
 24 25  1  0  0  0
 25 26  2  0  0  0
 26 27  1  0  0  0
 27 28  2  0  0  0
 28 29  1  0  0  0
 29 30  1  0  0  0
 30 31  2  0  0  0
  7  1  1  0  0  0
 31  8  1  0  0  0
 29  3  1  0  0  0
 14  9  1  0  0  0
 31 15  1  0  0  0
 21 16  1  0  0  0
 30 22  1  0  0  0
 28 23  1  0  0  0
 34 35  1  0  0  0
 18 32  1  0  0  0
M  END
> <minimizedAffinity>
2.61722

> <CNNscore>
0.5446680188

> <CNNaffinity>
7.7957658768

> <CNN_VS>
4.2461042404

> <CNNaffinity_variance>
0.1306505501

$$$$
[H]c1c([H])c([H])c2c(c1[H])c1c3c(c4c5c([H])c([H])c([H])c([H])c5n5c4c1n2[C@@]1(C([H])([H])[H])O[C@]5([H])C([H])([H])[C@@]([H])(N([H])C([H])([H])[H])[C@@]1([H])OC([H])([H])[H])C(=O)N([H])C3([H])[H]


 37 44  0  0  0  0  0  0  0  0999 V2000
   10.8296   43.6475  133.9174 C   0  0  0  0  0  0  0  0  0  0  0  0
   10.4556   44.8687  134.6331 C   0  0  0  0  0  0  0  0  0  0  0  0
   11.0786   46.0862  134.0744 C   0  0  0  0  0  0  0  0  0  0  0  0
   12.0850   46.0313  133.2443 O   0  0  0  0  0  0  0  0  0  0  0  0
   12.2294   45.0240  132.2940 C   0  0  0  0  0  0  0  0  0  0  0  0
   13.7273   45.1407  131.9821 C   0  0  0  0  0  0  0  0  0  0  0  0
   11.9299   43.7311  132.8972 C   0  0  0  0  0  0  0  0  0  0  0  0
   11.4080   45.3862  131.1256 N   0  0  0  0  0  0  0  0  0  0  0  0
   11.5878   45.0224  129.8572 C   0  0  0  0  0  0  0  0  0  0  0  0
   12.5035   44.2133  129.2440 C   0  0  0  0  0  0  0  0  0  0  0  0
   12.4746   43.9872  127.8860 C   0  0  0  0  0  0  0  0  0  0  0  0
   11.5019   44.5789  127.0741 C   0  0  0  0  0  0  0  0  0  0  0  0
   10.5890   45.3838  127.6795 C   0  0  0  0  0  0  0  0  0  0  0  0
   10.6279   45.6011  129.0313 C   0  0  0  0  0  0  0  0  0  0  0  0
    9.8261   46.3524  129.8494 C   0  0  0  0  0  0  0  0  0  0  0  0
    8.7084   47.1576  129.6196 C   0  0  0  0  0  0  0  0  0  0  0  0
    8.0042   47.4688  128.3546 C   0  0  0  0  0  0  0  0  0  0  0  0
    6.9255   48.3423  128.6799 N   0  0  0  0  0  0  0  0  0  0  0  0
    6.9489   48.5733  130.0923 C   0  0  0  0  0  0  0  0  0  0  0  0
    6.1133   49.3012  130.6319 O   0  0  0  0  0  0  0  0  0  0  0  0
    8.0609   47.8302  130.6548 C   0  0  0  0  0  0  0  0  0  0  0  0
    8.5736   47.6644  131.9216 C   0  0  0  0  0  0  0  0  0  0  0  0
    8.2236   48.1333  133.1749 C   0  0  0  0  0  0  0  0  0  0  0  0
    7.2255   48.9588  133.6105 C   0  0  0  0  0  0  0  0  0  0  0  0
    7.1309   49.2494  134.9574 C   0  0  0  0  0  0  0  0  0  0  0  0
    8.0231   48.7208  135.8549 C   0  0  0  0  0  0  0  0  0  0  0  0
    9.0342   47.8872  135.4302 C   0  0  0  0  0  0  0  0  0  0  0  0
    9.1195   47.6056  134.0952 C   0  0  0  0  0  0  0  0  0  0  0  0
    9.9807   46.8493  133.4473 N   0  0  0  0  0  0  0  0  0  0  0  0
    9.6992   46.8518  132.1425 C   0  0  0  0  0  0  0  0  0  0  0  0
   10.3296   46.1938  131.1003 C   0  0  0  0  0  0  0  0  0  0  0  0
    6.2470   48.7333  127.9848 H   0  0  0  0  0  0  0  0  0  0  0  0
    8.4555   43.9095  133.6832 C   0  0  0  0  0  0  0  0  0  0  0  0
    9.5975   43.0958  133.3093 N   0  0  0  0  0  0  0  0  0  0  0  0
    9.6454   43.1354  132.2687 H   0  0  0  0  0  0  0  0  0  0  0  0
   11.6523   42.6882  132.0164 O   0  0  0  0  0  0  0  0  0  0  0  0
   12.7312   42.3533  131.2075 C   0  0  0  0  0  0  0  0  0  0  0  0
 33 34  1  0  0  0
 34  1  1  0  0  0
  1  2  1  0  0  0
  2  3  1  0  0  0
  3  4  1  0  0  0
  4  5  1  0  0  0
  5  6  1  0  0  0
  5  7  1  0  0  0
  7 36  1  0  0  0
 36 37  1  0  0  0
  5  8  1  0  0  0
  8  9  1  0  0  0
  9 10  2  0  0  0
 10 11  1  0  0  0
 11 12  2  0  0  0
 12 13  1  0  0  0
 13 14  2  0  0  0
 14 15  1  0  0  0
 15 16  2  0  0  0
 16 17  1  0  0  0
 17 18  1  0  0  0
 18 19  1  0  0  0
 19 20  2  0  0  0
 19 21  1  0  0  0
 21 22  2  0  0  0
 22 23  1  0  0  0
 23 24  2  0  0  0
 24 25  1  0  0  0
 25 26  2  0  0  0
 26 27  1  0  0  0
 27 28  2  0  0  0
 28 29  1  0  0  0
 29 30  1  0  0  0
 30 31  2  0  0  0
  7  1  1  0  0  0
 31  8  1  0  0  0
 29  3  1  0  0  0
 14  9  1  0  0  0
 31 15  1  0  0  0
 21 16  1  0  0  0
 30 22  1  0  0  0
 28 23  1  0  0  0
 34 35  1  0  0  0
 18 32  1  0  0  0
M  END
> <minimizedAffinity>
15.92480

> <CNNscore>
0.4204417169

> <CNNaffinity>
7.5391945839

> <CNN_VS>
3.1697919369

> <CNNaffinity_variance>
0.4587084353

$$$$
[H]c1c([H])c([H])c2c(c1[H])c1c3c(c4c5c([H])c([H])c([H])c([H])c5n5c4c1n2[C@@]1(C([H])([H])[H])O[C@]5([H])C([H])([H])[C@@]([H])(N([H])C([H])([H])[H])[C@@]1([H])OC([H])([H])[H])C(=O)N([H])C3([H])[H]


 37 44  0  0  0  0  0  0  0  0999 V2000
   10.2158   42.8382  133.3299 C   0  0  0  0  0  0  0  0  0  0  0  0
   10.1963   43.9698  134.2585 C   0  0  0  0  0  0  0  0  0  0  0  0
   11.0789   45.0797  133.8441 C   0  0  0  0  0  0  0  0  0  0  0  0
   11.9984   44.9296  132.9294 O   0  0  0  0  0  0  0  0  0  0  0  0
   11.8389   44.0982  131.8239 C   0  0  0  0  0  0  0  0  0  0  0  0
   13.3012   43.9035  131.4017 C   0  0  0  0  0  0  0  0  0  0  0  0
   11.2519   42.8307  132.2413 C   0  0  0  0  0  0  0  0  0  0  0  0
   11.0808   44.8449  130.8046 N   0  0  0  0  0  0  0  0  0  0  0  0
   11.1026   44.6748  129.4840 C   0  0  0  0  0  0  0  0  0  0  0  0
   11.7545   43.7886  128.6724 C   0  0  0  0  0  0  0  0  0  0  0  0
   11.6051   43.8158  127.3039 C   0  0  0  0  0  0  0  0  0  0  0  0
   10.7756   44.7561  126.6847 C   0  0  0  0  0  0  0  0  0  0  0  0
   10.1250   45.6389  127.4877 C   0  0  0  0  0  0  0  0  0  0  0  0
   10.2816   45.6021  128.8479 C   0  0  0  0  0  0  0  0  0  0  0  0
    9.7349   46.3701  129.8418 C   0  0  0  0  0  0  0  0  0  0  0  0
    8.8468   47.4479  129.8416 C   0  0  0  0  0  0  0  0  0  0  0  0
    8.1846   48.1345  128.7090 C   0  0  0  0  0  0  0  0  0  0  0  0
    7.3777   49.1716  129.2620 N   0  0  0  0  0  0  0  0  0  0  0  0
    7.5256   49.1408  130.6853 C   0  0  0  0  0  0  0  0  0  0  0  0
    6.9272   49.9432  131.4046 O   0  0  0  0  0  0  0  0  0  0  0  0
    8.4397   48.0659  131.0230 C   0  0  0  0  0  0  0  0  0  0  0  0
    8.9536   47.5639  132.1973 C   0  0  0  0  0  0  0  0  0  0  0  0
    8.7930   47.8779  133.5348 C   0  0  0  0  0  0  0  0  0  0  0  0
    8.0572   48.8306  134.1817 C   0  0  0  0  0  0  0  0  0  0  0  0
    8.1030   48.8966  135.5605 C   0  0  0  0  0  0  0  0  0  0  0  0
    8.8746   48.0210  136.2808 C   0  0  0  0  0  0  0  0  0  0  0  0
    9.6215   47.0556  135.6423 C   0  0  0  0  0  0  0  0  0  0  0  0
    9.5696   46.9983  134.2775 C   0  0  0  0  0  0  0  0  0  0  0  0
   10.1805   46.1817  133.4449 N   0  0  0  0  0  0  0  0  0  0  0  0
    9.8471   46.4787  132.1869 C   0  0  0  0  0  0  0  0  0  0  0  0
   10.2410   45.8799  131.0025 C   0  0  0  0  0  0  0  0  0  0  0  0
    6.7875   49.8291  128.7001 H   0  0  0  0  0  0  0  0  0  0  0  0
    7.9958   43.7494  133.2952 C   0  0  0  0  0  0  0  0  0  0  0  0
    8.8570   42.7136  132.7552 N   0  0  0  0  0  0  0  0  0  0  0  0
    8.8728   42.8669  131.7242 H   0  0  0  0  0  0  0  0  0  0  0  0
   10.6788   42.0548  131.2364 O   0  0  0  0  0  0  0  0  0  0  0  0
   10.9229   40.6954  131.3884 C   0  0  0  0  0  0  0  0  0  0  0  0
 33 34  1  0  0  0
 34  1  1  0  0  0
  1  2  1  0  0  0
  2  3  1  0  0  0
  3  4  1  0  0  0
  4  5  1  0  0  0
  5  6  1  0  0  0
  5  7  1  0  0  0
  7 36  1  0  0  0
 36 37  1  0  0  0
  5  8  1  0  0  0
  8  9  1  0  0  0
  9 10  2  0  0  0
 10 11  1  0  0  0
 11 12  2  0  0  0
 12 13  1  0  0  0
 13 14  2  0  0  0
 14 15  1  0  0  0
 15 16  2  0  0  0
 16 17  1  0  0  0
 17 18  1  0  0  0
 18 19  1  0  0  0
 19 20  2  0  0  0
 19 21  1  0  0  0
 21 22  2  0  0  0
 22 23  1  0  0  0
 23 24  2  0  0  0
 24 25  1  0  0  0
 25 26  2  0  0  0
 26 27  1  0  0  0
 27 28  2  0  0  0
 28 29  1  0  0  0
 29 30  1  0  0  0
 30 31  2  0  0  0
  7  1  1  0  0  0
 31  8  1  0  0  0
 29  3  1  0  0  0
 14  9  1  0  0  0
 31 15  1  0  0  0
 21 16  1  0  0  0
 30 22  1  0  0  0
 28 23  1  0  0  0
 34 35  1  0  0  0
 18 32  1  0  0  0
M  END
> <minimizedAffinity>
6.95031

> <CNNscore>
0.3958060145

> <CNNaffinity>
7.5207009315

> <CNN_VS>
2.9767386913

> <CNNaffinity_variance>
0.2948696613

$$$$
[H]c1c([H])c([H])c2c(c1[H])c1c3c(c4c5c([H])c([H])c([H])c([H])c5n5c4c1n2[C@@]1(C([H])([H])[H])O[C@]5([H])C([H])([H])[C@@]([H])(N([H])C([H])([H])[H])[C@@]1([H])OC([H])([H])[H])C(=O)N([H])C3([H])[H]


 37 44  0  0  0  0  0  0  0  0999 V2000
   10.7710   44.1434  134.5540 C   0  0  0  0  0  0  0  0  0  0  0  0
   10.2593   43.0561  133.7179 C   0  0  0  0  0  0  0  0  0  0  0  0
    8.9772   43.3803  133.0594 C   0  0  0  0  0  0  0  0  0  0  0  0
    8.2419   44.3920  133.4344 O   0  0  0  0  0  0  0  0  0  0  0  0
    8.7803   45.5903  133.8956 C   0  0  0  0  0  0  0  0  0  0  0  0
    7.5726   46.1769  134.6385 C   0  0  0  0  0  0  0  0  0  0  0  0
    9.8702   45.3157  134.8240 C   0  0  0  0  0  0  0  0  0  0  0  0
    9.1359   46.4059  132.7210 N   0  0  0  0  0  0  0  0  0  0  0  0
    9.2169   47.7328  132.6431 C   0  0  0  0  0  0  0  0  0  0  0  0
    9.0517   48.7291  133.5647 C   0  0  0  0  0  0  0  0  0  0  0  0
    9.1968   50.0566  133.2290 C   0  0  0  0  0  0  0  0  0  0  0  0
    9.5212   50.4422  131.9246 C   0  0  0  0  0  0  0  0  0  0  0  0
    9.6869   49.4551  131.0050 C   0  0  0  0  0  0  0  0  0  0  0  0
    9.5399   48.1380  131.3508 C   0  0  0  0  0  0  0  0  0  0  0  0
    9.6617   46.9906  130.6124 C   0  0  0  0  0  0  0  0  0  0  0  0
    9.9651   46.7408  129.2723 C   0  0  0  0  0  0  0  0  0  0  0  0
   10.2644   47.6863  128.1726 C   0  0  0  0  0  0  0  0  0  0  0  0
   10.5040   46.9064  127.0035 N   0  0  0  0  0  0  0  0  0  0  0  0
   10.3608   45.5254  127.3514 C   0  0  0  0  0  0  0  0  0  0  0  0
   10.5180   44.6379  126.5107 O   0  0  0  0  0  0  0  0  0  0  0  0
   10.0269   45.4453  128.7611 C   0  0  0  0  0  0  0  0  0  0  0  0
    9.7755   44.4164  129.6404 C   0  0  0  0  0  0  0  0  0  0  0  0
    9.7526   43.0376  129.5335 C   0  0  0  0  0  0  0  0  0  0  0  0
    9.9654   42.1851  128.4868 C   0  0  0  0  0  0  0  0  0  0  0  0
    9.8703   40.8233  128.6965 C   0  0  0  0  0  0  0  0  0  0  0  0
    9.5664   40.3227  129.9366 C   0  0  0  0  0  0  0  0  0  0  0  0
    9.3493   41.1700  131.0009 C   0  0  0  0  0  0  0  0  0  0  0  0
    9.4457   42.5160  130.7833 C   0  0  0  0  0  0  0  0  0  0  0  0
    9.2859   43.5184  131.6219 N   0  0  0  0  0  0  0  0  0  0  0  0
    9.4708   44.6782  130.9875 C   0  0  0  0  0  0  0  0  0  0  0  0
    9.4120   45.9725  131.4754 C   0  0  0  0  0  0  0  0  0  0  0  0
   10.7421   47.3019  126.0636 H   0  0  0  0  0  0  0  0  0  0  0  0
   12.4713   43.6640  132.9294 C   0  0  0  0  0  0  0  0  0  0  0  0
   12.0488   44.5960  133.9585 N   0  0  0  0  0  0  0  0  0  0  0  0
   11.9321   45.5142  133.4789 H   0  0  0  0  0  0  0  0  0  0  0  0
   10.7503   46.3666  135.0714 O   0  0  0  0  0  0  0  0  0  0  0  0
   10.3313   47.2005  136.1008 C   0  0  0  0  0  0  0  0  0  0  0  0
 33 34  1  0  0  0
 34  1  1  0  0  0
  1  2  1  0  0  0
  2  3  1  0  0  0
  3  4  1  0  0  0
  4  5  1  0  0  0
  5  6  1  0  0  0
  5  7  1  0  0  0
  7 36  1  0  0  0
 36 37  1  0  0  0
  5  8  1  0  0  0
  8  9  1  0  0  0
  9 10  2  0  0  0
 10 11  1  0  0  0
 11 12  2  0  0  0
 12 13  1  0  0  0
 13 14  2  0  0  0
 14 15  1  0  0  0
 15 16  2  0  0  0
 16 17  1  0  0  0
 17 18  1  0  0  0
 18 19  1  0  0  0
 19 20  2  0  0  0
 19 21  1  0  0  0
 21 22  2  0  0  0
 22 23  1  0  0  0
 23 24  2  0  0  0
 24 25  1  0  0  0
 25 26  2  0  0  0
 26 27  1  0  0  0
 27 28  2  0  0  0
 28 29  1  0  0  0
 29 30  1  0  0  0
 30 31  2  0  0  0
  7  1  1  0  0  0
 31  8  1  0  0  0
 29  3  1  0  0  0
 14  9  1  0  0  0
 31 15  1  0  0  0
 21 16  1  0  0  0
 30 22  1  0  0  0
 28 23  1  0  0  0
 34 35  1  0  0  0
 18 32  1  0  0  0
M  END
> <minimizedAffinity>
15.31028

> <CNNscore>
0.3913453817

> <CNNaffinity>
7.3487029076

> <CNN_VS>
2.8758809566

> <CNNaffinity_variance>
0.2865034044

$$$$
[H]c1c([H])c([H])c2c(c1[H])c1c3c(c4c5c([H])c([H])c([H])c([H])c5n5c4c1n2[C@@]1(C([H])([H])[H])O[C@]5([H])C([H])([H])[C@@]([H])(N([H])C([H])([H])[H])[C@@]1([H])OC([H])([H])[H])C(=O)N([H])C3([H])[H]


 37 44  0  0  0  0  0  0  0  0999 V2000
   12.1950   43.0681  132.2932 C   0  0  0  0  0  0  0  0  0  0  0  0
   11.5364   42.6900  131.0416 C   0  0  0  0  0  0  0  0  0  0  0  0
   10.0620   42.6938  131.1339 C   0  0  0  0  0  0  0  0  0  0  0  0
    9.4394   42.7236  132.2812 O   0  0  0  0  0  0  0  0  0  0  0  0
    9.9211   43.4194  133.3868 C   0  0  0  0  0  0  0  0  0  0  0  0
    9.1426   42.7318  134.5163 C   0  0  0  0  0  0  0  0  0  0  0  0
   11.3523   43.1834  133.5323 C   0  0  0  0  0  0  0  0  0  0  0  0
    9.5209   44.8300  133.2405 N   0  0  0  0  0  0  0  0  0  0  0  0
    9.3275   45.7276  134.2050 C   0  0  0  0  0  0  0  0  0  0  0  0
    9.4612   45.6736  135.5645 C   0  0  0  0  0  0  0  0  0  0  0  0
    9.1983   46.7653  136.3614 C   0  0  0  0  0  0  0  0  0  0  0  0
    8.7817   47.9808  135.8097 C   0  0  0  0  0  0  0  0  0  0  0  0
    8.6477   48.0394  134.4583 C   0  0  0  0  0  0  0  0  0  0  0  0
    8.9122   46.9467  133.6759 C   0  0  0  0  0  0  0  0  0  0  0  0
    8.8553   46.7719  132.3185 C   0  0  0  0  0  0  0  0  0  0  0  0
    8.5113   47.6123  131.2574 C   0  0  0  0  0  0  0  0  0  0  0  0
    8.0769   49.0279  131.2675 C   0  0  0  0  0  0  0  0  0  0  0  0
    7.8508   49.4062  129.9116 N   0  0  0  0  0  0  0  0  0  0  0  0
    8.1304   48.2750  129.0804 C   0  0  0  0  0  0  0  0  0  0  0  0
    8.0103   48.3405  127.8554 O   0  0  0  0  0  0  0  0  0  0  0  0
    8.5378   47.1748  129.9340 C   0  0  0  0  0  0  0  0  0  0  0  0
    8.9211   45.8706  129.7170 C   0  0  0  0  0  0  0  0  0  0  0  0
    9.0841   45.0859  128.5898 C   0  0  0  0  0  0  0  0  0  0  0  0
    8.9064   45.3296  127.2568 C   0  0  0  0  0  0  0  0  0  0  0  0
    9.1573   44.3205  126.3478 C   0  0  0  0  0  0  0  0  0  0  0  0
    9.5800   43.0853  126.7678 C   0  0  0  0  0  0  0  0  0  0  0  0
    9.7633   42.8252  128.1081 C   0  0  0  0  0  0  0  0  0  0  0  0
    9.5124   43.8303  129.0000 C   0  0  0  0  0  0  0  0  0  0  0  0
    9.6097   43.8351  130.3129 N   0  0  0  0  0  0  0  0  0  0  0  0
    9.2653   45.0325  130.7919 C   0  0  0  0  0  0  0  0  0  0  0  0
    9.2304   45.4855  132.0997 C   0  0  0  0  0  0  0  0  0  0  0  0
    7.5345   50.3559  129.6043 H   0  0  0  0  0  0  0  0  0  0  0  0
   12.9801   44.5975  130.6186 C   0  0  0  0  0  0  0  0  0  0  0  0
   12.9284   44.3299  132.0440 N   0  0  0  0  0  0  0  0  0  0  0  0
   12.4287   45.1413  132.4668 H   0  0  0  0  0  0  0  0  0  0  0  0
   12.0493   44.0874  134.3306 O   0  0  0  0  0  0  0  0  0  0  0  0
   12.1405   43.6878  135.6582 C   0  0  0  0  0  0  0  0  0  0  0  0
 33 34  1  0  0  0
 34  1  1  0  0  0
  1  2  1  0  0  0
  2  3  1  0  0  0
  3  4  1  0  0  0
  4  5  1  0  0  0
  5  6  1  0  0  0
  5  7  1  0  0  0
  7 36  1  0  0  0
 36 37  1  0  0  0
  5  8  1  0  0  0
  8  9  1  0  0  0
  9 10  2  0  0  0
 10 11  1  0  0  0
 11 12  2  0  0  0
 12 13  1  0  0  0
 13 14  2  0  0  0
 14 15  1  0  0  0
 15 16  2  0  0  0
 16 17  1  0  0  0
 17 18  1  0  0  0
 18 19  1  0  0  0
 19 20  2  0  0  0
 19 21  1  0  0  0
 21 22  2  0  0  0
 22 23  1  0  0  0
 23 24  2  0  0  0
 24 25  1  0  0  0
 25 26  2  0  0  0
 26 27  1  0  0  0
 27 28  2  0  0  0
 28 29  1  0  0  0
 29 30  1  0  0  0
 30 31  2  0  0  0
  7  1  1  0  0  0
 31  8  1  0  0  0
 29  3  1  0  0  0
 14  9  1  0  0  0
 31 15  1  0  0  0
 21 16  1  0  0  0
 30 22  1  0  0  0
 28 23  1  0  0  0
 34 35  1  0  0  0
 18 32  1  0  0  0
M  END
> <minimizedAffinity>
7.78444

> <CNNscore>
0.3586343825

> <CNNaffinity>
7.5912537575

> <CNN_VS>
2.7224845886

> <CNNaffinity_variance>
0.3256161511

$$$$
[H]c1c([H])c([H])c2c(c1[H])c1c3c(c4c5c([H])c([H])c([H])c([H])c5n5c4c1n2[C@@]1(C([H])([H])[H])O[C@]5([H])C([H])([H])[C@@]([H])(N([H])C([H])([H])[H])[C@@]1([H])OC([H])([H])[H])C(=O)N([H])C3([H])[H]


 37 44  0  0  0  0  0  0  0  0999 V2000
    7.1878   46.6454  128.9096 C   0  0  0  0  0  0  0  0  0  0  0  0
    7.9656   45.4166  128.7403 C   0  0  0  0  0  0  0  0  0  0  0  0
    9.4198   45.6196  128.9039 C   0  0  0  0  0  0  0  0  0  0  0  0
    9.9600   46.8081  128.8869 O   0  0  0  0  0  0  0  0  0  0  0  0
    9.3280   47.9352  129.4053 C   0  0  0  0  0  0  0  0  0  0  0  0
   10.1112   49.0499  128.6992 C   0  0  0  0  0  0  0  0  0  0  0  0
    7.9299   47.9496  128.9928 C   0  0  0  0  0  0  0  0  0  0  0  0
    9.5620   47.9534  130.8600 N   0  0  0  0  0  0  0  0  0  0  0  0
    9.5831   49.0103  131.6700 C   0  0  0  0  0  0  0  0  0  0  0  0
    9.3710   50.3447  131.4615 C   0  0  0  0  0  0  0  0  0  0  0  0
    9.4479   51.2587  132.4884 C   0  0  0  0  0  0  0  0  0  0  0  0
    9.7476   50.8573  133.7940 C   0  0  0  0  0  0  0  0  0  0  0  0
    9.9589   49.5315  134.0062 C   0  0  0  0  0  0  0  0  0  0  0  0
    9.8796   48.6316  132.9767 C   0  0  0  0  0  0  0  0  0  0  0  0
   10.0435   47.2718  132.9500 C   0  0  0  0  0  0  0  0  0  0  0  0
   10.3492   46.3239  133.9290 C   0  0  0  0  0  0  0  0  0  0  0  0
   10.6065   46.5004  135.3765 C   0  0  0  0  0  0  0  0  0  0  0  0
   10.8705   45.2073  135.9156 N   0  0  0  0  0  0  0  0  0  0  0  0
   10.7840   44.2541  134.8513 C   0  0  0  0  0  0  0  0  0  0  0  0
   10.9727   43.0534  135.0558 O   0  0  0  0  0  0  0  0  0  0  0  0
   10.4602   44.9668  133.6297 C   0  0  0  0  0  0  0  0  0  0  0  0
   10.2531   44.5993  132.3194 C   0  0  0  0  0  0  0  0  0  0  0  0
   10.2587   43.3938  131.6413 C   0  0  0  0  0  0  0  0  0  0  0  0
   10.4896   42.1070  132.0395 C   0  0  0  0  0  0  0  0  0  0  0  0
   10.4216   41.0904  131.1071 C   0  0  0  0  0  0  0  0  0  0  0  0
   10.1267   41.3588  129.7949 C   0  0  0  0  0  0  0  0  0  0  0  0
    9.8916   42.6508  129.3791 C   0  0  0  0  0  0  0  0  0  0  0  0
    9.9612   43.6501  130.3093 C   0  0  0  0  0  0  0  0  0  0  0  0
    9.7809   44.9466  130.1679 N   0  0  0  0  0  0  0  0  0  0  0  0
    9.9460   45.5612  131.3413 C   0  0  0  0  0  0  0  0  0  0  0  0
    9.8423   46.9048  131.6584 C   0  0  0  0  0  0  0  0  0  0  0  0
   11.0877   45.0159  136.9219 H   0  0  0  0  0  0  0  0  0  0  0  0
    4.9546   46.8166  129.7717 C   0  0  0  0  0  0  0  0  0  0  0  0
    6.3236   46.4621  130.0977 N   0  0  0  0  0  0  0  0  0  0  0  0
    6.2959   45.4612  130.3877 H   0  0  0  0  0  0  0  0  0  0  0  0
    7.0787   48.7751  129.7239 O   0  0  0  0  0  0  0  0  0  0  0  0
    6.8641   50.0093  129.1230 C   0  0  0  0  0  0  0  0  0  0  0  0
 33 34  1  0  0  0
 34  1  1  0  0  0
  1  2  1  0  0  0
  2  3  1  0  0  0
  3  4  1  0  0  0
  4  5  1  0  0  0
  5  6  1  0  0  0
  5  7  1  0  0  0
  7 36  1  0  0  0
 36 37  1  0  0  0
  5  8  1  0  0  0
  8  9  1  0  0  0
  9 10  2  0  0  0
 10 11  1  0  0  0
 11 12  2  0  0  0
 12 13  1  0  0  0
 13 14  2  0  0  0
 14 15  1  0  0  0
 15 16  2  0  0  0
 16 17  1  0  0  0
 17 18  1  0  0  0
 18 19  1  0  0  0
 19 20  2  0  0  0
 19 21  1  0  0  0
 21 22  2  0  0  0
 22 23  1  0  0  0
 23 24  2  0  0  0
 24 25  1  0  0  0
 25 26  2  0  0  0
 26 27  1  0  0  0
 27 28  2  0  0  0
 28 29  1  0  0  0
 29 30  1  0  0  0
 30 31  2  0  0  0
  7  1  1  0  0  0
 31  8  1  0  0  0
 29  3  1  0  0  0
 14  9  1  0  0  0
 31 15  1  0  0  0
 21 16  1  0  0  0
 30 22  1  0  0  0
 28 23  1  0  0  0
 34 35  1  0  0  0
 18 32  1  0  0  0
M  END
> <minimizedAffinity>
8.89990

> <CNNscore>
0.2886223793

> <CNNaffinity>
7.4125633240

> <CNN_VS>
2.1394317150

> <CNNaffinity_variance>
0.2031783760

$$$$
[H]c1c([H])c([H])c2c(c1[H])c1c3c(c4c5c([H])c([H])c([H])c([H])c5n5c4c1n2[C@@]1(C([H])([H])[H])O[C@]5([H])C([H])([H])[C@@]([H])(N([H])C([H])([H])[H])[C@@]1([H])OC([H])([H])[H])C(=O)N([H])C3([H])[H]


 37 44  0  0  0  0  0  0  0  0999 V2000
   10.8352   49.3850  132.5376 C   0  0  0  0  0  0  0  0  0  0  0  0
   11.2281   48.1887  133.2845 C   0  0  0  0  0  0  0  0  0  0  0  0
   10.0881   47.3125  133.6241 C   0  0  0  0  0  0  0  0  0  0  0  0
    8.8509   47.7212  133.5407 O   0  0  0  0  0  0  0  0  0  0  0  0
    8.4097   48.6064  132.5606 C   0  0  0  0  0  0  0  0  0  0  0  0
    7.1125   49.1166  133.2021 C   0  0  0  0  0  0  0  0  0  0  0  0
    9.3698   49.6930  132.4099 C   0  0  0  0  0  0  0  0  0  0  0  0
    8.1349   47.8270  131.3407 N   0  0  0  0  0  0  0  0  0  0  0  0
    7.2850   48.1210  130.3586 C   0  0  0  0  0  0  0  0  0  0  0  0
    6.4605   49.1878  130.1321 C   0  0  0  0  0  0  0  0  0  0  0  0
    5.6626   49.2608  129.0123 C   0  0  0  0  0  0  0  0  0  0  0  0
    5.6631   48.2410  128.0554 C   0  0  0  0  0  0  0  0  0  0  0  0
    6.4815   47.1785  128.2761 C   0  0  0  0  0  0  0  0  0  0  0  0
    7.2708   47.1172  129.3938 C   0  0  0  0  0  0  0  0  0  0  0  0
    8.1632   46.1690  129.8193 C   0  0  0  0  0  0  0  0  0  0  0  0
    8.5851   44.9457  129.2940 C   0  0  0  0  0  0  0  0  0  0  0  0
    8.1786   44.2539  128.0494 C   0  0  0  0  0  0  0  0  0  0  0  0
    8.9141   43.0342  127.9888 N   0  0  0  0  0  0  0  0  0  0  0  0
    9.7499   42.9593  129.1484 C   0  0  0  0  0  0  0  0  0  0  0  0
   10.4920   41.9933  129.3364 O   0  0  0  0  0  0  0  0  0  0  0  0
    9.5306   44.1531  129.9432 C   0  0  0  0  0  0  0  0  0  0  0  0
   10.0341   44.6322  131.1315 C   0  0  0  0  0  0  0  0  0  0  0  0
   10.9661   44.1694  132.0427 C   0  0  0  0  0  0  0  0  0  0  0  0
   11.7292   43.0369  132.0945 C   0  0  0  0  0  0  0  0  0  0  0  0
   12.5899   42.8521  133.1588 C   0  0  0  0  0  0  0  0  0  0  0  0
   12.6846   43.7880  134.1567 C   0  0  0  0  0  0  0  0  0  0  0  0
   11.9216   44.9342  134.1179 C   0  0  0  0  0  0  0  0  0  0  0  0
   11.0728   45.1080  133.0605 C   0  0  0  0  0  0  0  0  0  0  0  0
   10.2501   46.1010  132.7952 N   0  0  0  0  0  0  0  0  0  0  0  0
    9.6028   45.8647  131.6520 C   0  0  0  0  0  0  0  0  0  0  0  0
    8.6610   46.6362  130.9929 C   0  0  0  0  0  0  0  0  0  0  0  0
    8.8369   42.3312  127.2166 H   0  0  0  0  0  0  0  0  0  0  0  0
   10.4622   48.9978  130.1987 C   0  0  0  0  0  0  0  0  0  0  0  0
   11.4670   49.3000  131.2013 N   0  0  0  0  0  0  0  0  0  0  0  0
   11.8775   50.2172  130.9239 H   0  0  0  0  0  0  0  0  0  0  0  0
    9.2830   50.4352  131.2343 O   0  0  0  0  0  0  0  0  0  0  0  0
    8.2120   51.3204  131.2239 C   0  0  0  0  0  0  0  0  0  0  0  0
 33 34  1  0  0  0
 34  1  1  0  0  0
  1  2  1  0  0  0
  2  3  1  0  0  0
  3  4  1  0  0  0
  4  5  1  0  0  0
  5  6  1  0  0  0
  5  7  1  0  0  0
  7 36  1  0  0  0
 36 37  1  0  0  0
  5  8  1  0  0  0
  8  9  1  0  0  0
  9 10  2  0  0  0
 10 11  1  0  0  0
 11 12  2  0  0  0
 12 13  1  0  0  0
 13 14  2  0  0  0
 14 15  1  0  0  0
 15 16  2  0  0  0
 16 17  1  0  0  0
 17 18  1  0  0  0
 18 19  1  0  0  0
 19 20  2  0  0  0
 19 21  1  0  0  0
 21 22  2  0  0  0
 22 23  1  0  0  0
 23 24  2  0  0  0
 24 25  1  0  0  0
 25 26  2  0  0  0
 26 27  1  0  0  0
 27 28  2  0  0  0
 28 29  1  0  0  0
 29 30  1  0  0  0
 30 31  2  0  0  0
  7  1  1  0  0  0
 31  8  1  0  0  0
 29  3  1  0  0  0
 14  9  1  0  0  0
 31 15  1  0  0  0
 21 16  1  0  0  0
 30 22  1  0  0  0
 28 23  1  0  0  0
 34 35  1  0  0  0
 18 32  1  0  0  0
M  END
> <minimizedAffinity>
9.94453

> <CNNscore>
0.2105199397

> <CNNaffinity>
7.1190962791

> <CNN_VS>
1.4987117052

> <CNNaffinity_variance>
0.1744646579

$$$$
[H]c1c([H])c([H])c2c(c1[H])c1c3c(c4c5c([H])c([H])c([H])c([H])c5n5c4c1n2[C@@]1(C([H])([H])[H])O[C@]5([H])C([H])([H])[C@@]([H])(N([H])C([H])([H])[H])[C@@]1([H])OC([H])([H])[H])C(=O)N([H])C3([H])[H]


 37 44  0  0  0  0  0  0  0  0999 V2000
    8.1450   46.9471  128.9993 C   0  0  0  0  0  0  0  0  0  0  0  0
    9.4899   46.5883  128.5454 C   0  0  0  0  0  0  0  0  0  0  0  0
   10.5601   47.3071  129.2667 C   0  0  0  0  0  0  0  0  0  0  0  0
   10.3165   48.3621  129.9963 O   0  0  0  0  0  0  0  0  0  0  0  0
    9.1474   48.5184  130.7359 C   0  0  0  0  0  0  0  0  0  0  0  0
    9.1490   50.0376  130.9519 C   0  0  0  0  0  0  0  0  0  0  0  0
    7.9991   48.1152  129.9334 C   0  0  0  0  0  0  0  0  0  0  0  0
    9.3193   47.7952  132.0082 N   0  0  0  0  0  0  0  0  0  0  0  0
    8.7226   48.0401  133.1732 C   0  0  0  0  0  0  0  0  0  0  0  0
    7.7813   48.9527  133.5609 C   0  0  0  0  0  0  0  0  0  0  0  0
    7.3111   49.0024  134.8541 C   0  0  0  0  0  0  0  0  0  0  0  0
    7.7796   48.1164  135.8293 C   0  0  0  0  0  0  0  0  0  0  0  0
    8.7152   47.2070  135.4484 C   0  0  0  0  0  0  0  0  0  0  0  0
    9.1753   47.1672  134.1589 C   0  0  0  0  0  0  0  0  0  0  0  0
   10.0932   46.3517  133.5515 C   0  0  0  0  0  0  0  0  0  0  0  0
   10.8836   45.2934  134.0050 C   0  0  0  0  0  0  0  0  0  0  0  0
   10.9835   44.6909  135.3540 C   0  0  0  0  0  0  0  0  0  0  0  0
   11.9413   43.6381  135.2725 N   0  0  0  0  0  0  0  0  0  0  0  0
   12.4265   43.5796  133.9272 C   0  0  0  0  0  0  0  0  0  0  0  0
   13.2716   42.7477  133.5912 O   0  0  0  0  0  0  0  0  0  0  0  0
   11.7584   44.6133  133.1590 C   0  0  0  0  0  0  0  0  0  0  0  0
   11.8088   45.0322  131.8486 C   0  0  0  0  0  0  0  0  0  0  0  0
   12.5123   44.6240  130.7299 C   0  0  0  0  0  0  0  0  0  0  0  0
   13.4403   43.6418  130.5255 C   0  0  0  0  0  0  0  0  0  0  0  0
   13.9764   43.4730  129.2639 C   0  0  0  0  0  0  0  0  0  0  0  0
   13.5885   44.2763  128.2222 C   0  0  0  0  0  0  0  0  0  0  0  0
   12.6541   45.2702  128.4134 C   0  0  0  0  0  0  0  0  0  0  0  0
   12.1295   45.4295  129.6656 C   0  0  0  0  0  0  0  0  0  0  0  0
   11.2356   46.2926  130.1008 N   0  0  0  0  0  0  0  0  0  0  0  0
   11.0092   46.0986  131.4019 C   0  0  0  0  0  0  0  0  0  0  0  0
   10.1481   46.7628  132.2586 C   0  0  0  0  0  0  0  0  0  0  0  0
   12.2232   43.0275  136.0751 H   0  0  0  0  0  0  0  0  0  0  0  0
    8.4350   44.6031  129.4252 C   0  0  0  0  0  0  0  0  0  0  0  0
    7.5374   45.7318  129.5876 N   0  0  0  0  0  0  0  0  0  0  0  0
    7.4037   45.8422  130.6155 H   0  0  0  0  0  0  0  0  0  0  0  0
    6.8234   47.8446  130.6297 O   0  0  0  0  0  0  0  0  0  0  0  0
    5.6831   47.9610  129.8443 C   0  0  0  0  0  0  0  0  0  0  0  0
 33 34  1  0  0  0
 34  1  1  0  0  0
  1  2  1  0  0  0
  2  3  1  0  0  0
  3  4  1  0  0  0
  4  5  1  0  0  0
  5  6  1  0  0  0
  5  7  1  0  0  0
  7 36  1  0  0  0
 36 37  1  0  0  0
  5  8  1  0  0  0
  8  9  1  0  0  0
  9 10  2  0  0  0
 10 11  1  0  0  0
 11 12  2  0  0  0
 12 13  1  0  0  0
 13 14  2  0  0  0
 14 15  1  0  0  0
 15 16  2  0  0  0
 16 17  1  0  0  0
 17 18  1  0  0  0
 18 19  1  0  0  0
 19 20  2  0  0  0
 19 21  1  0  0  0
 21 22  2  0  0  0
 22 23  1  0  0  0
 23 24  2  0  0  0
 24 25  1  0  0  0
 25 26  2  0  0  0
 26 27  1  0  0  0
 27 28  2  0  0  0
 28 29  1  0  0  0
 29 30  1  0  0  0
 30 31  2  0  0  0
  7  1  1  0  0  0
 31  8  1  0  0  0
 29  3  1  0  0  0
 14  9  1  0  0  0
 31 15  1  0  0  0
 21 16  1  0  0  0
 30 22  1  0  0  0
 28 23  1  0  0  0
 34 35  1  0  0  0
 18 32  1  0  0  0
M  END
> <minimizedAffinity>
12.46970

> <CNNscore>
0.2073306441

> <CNNaffinity>
7.2078437805

> <CNN_VS>
1.4944069386

> <CNNaffinity_variance>
0.1646578014

$$$$
[H]c1c([H])c([H])c2c(c1[H])c1c3c(c4c5c([H])c([H])c([H])c([H])c5n5c4c1n2[C@@]1(C([H])([H])[H])O[C@]5([H])C([H])([H])[C@@]([H])(N([H])C([H])([H])[H])[C@@]1([H])OC([H])([H])[H])C(=O)N([H])C3([H])[H]


 37 44  0  0  0  0  0  0  0  0999 V2000
    7.3478   48.5729  129.2443 C   0  0  0  0  0  0  0  0  0  0  0  0
    8.3352   47.8381  128.4515 C   0  0  0  0  0  0  0  0  0  0  0  0
    9.6831   47.8349  129.0562 C   0  0  0  0  0  0  0  0  0  0  0  0
   10.0141   48.6556  130.0162 O   0  0  0  0  0  0  0  0  0  0  0  0
    9.1227   49.0646  131.0044 C   0  0  0  0  0  0  0  0  0  0  0  0
    9.8243   50.3307  131.5134 C   0  0  0  0  0  0  0  0  0  0  0  0
    7.8376   49.3970  130.4017 C   0  0  0  0  0  0  0  0  0  0  0  0
    9.0872   48.0173  132.0403 N   0  0  0  0  0  0  0  0  0  0  0  0
    8.7889   48.1556  133.3308 C   0  0  0  0  0  0  0  0  0  0  0  0
    8.4001   49.2280  134.0844 C   0  0  0  0  0  0  0  0  0  0  0  0
    8.1408   49.1097  135.4315 C   0  0  0  0  0  0  0  0  0  0  0  0
    8.2650   47.8810  136.0876 C   0  0  0  0  0  0  0  0  0  0  0  0
    8.6509   46.8119  135.3423 C   0  0  0  0  0  0  0  0  0  0  0  0
    8.9060   46.9418  134.0028 C   0  0  0  0  0  0  0  0  0  0  0  0
    9.2941   46.0235  133.0633 C   0  0  0  0  0  0  0  0  0  0  0  0
    9.5725   44.6560  133.1174 C   0  0  0  0  0  0  0  0  0  0  0  0
    9.5349   43.7224  134.2662 C   0  0  0  0  0  0  0  0  0  0  0  0
    9.9082   42.4375  133.7739 N   0  0  0  0  0  0  0  0  0  0  0  0
   10.1713   42.5562  132.3719 C   0  0  0  0  0  0  0  0  0  0  0  0
   10.5161   41.5791  131.7044 O   0  0  0  0  0  0  0  0  0  0  0  0
    9.9575   43.9384  131.9860 C   0  0  0  0  0  0  0  0  0  0  0  0
   10.0508   44.6403  130.8054 C   0  0  0  0  0  0  0  0  0  0  0  0
   10.3761   44.3036  129.5039 C   0  0  0  0  0  0  0  0  0  0  0  0
   10.7414   43.1259  128.9146 C   0  0  0  0  0  0  0  0  0  0  0  0
   11.0095   43.1049  127.5598 C   0  0  0  0  0  0  0  0  0  0  0  0
   10.9130   44.2468  126.8065 C   0  0  0  0  0  0  0  0  0  0  0  0
   10.5460   45.4409  127.3870 C   0  0  0  0  0  0  0  0  0  0  0  0
   10.2827   45.4516  128.7283 C   0  0  0  0  0  0  0  0  0  0  0  0
    9.9191   46.4486  129.5074 N   0  0  0  0  0  0  0  0  0  0  0  0
    9.7686   46.0167  130.7615 C   0  0  0  0  0  0  0  0  0  0  0  0
    9.3898   46.7121  131.8971 C   0  0  0  0  0  0  0  0  0  0  0  0
    9.9711   41.5718  134.3596 H   0  0  0  0  0  0  0  0  0  0  0  0
    5.3106   47.4408  128.6715 C   0  0  0  0  0  0  0  0  0  0  0  0
    6.3278   47.5986  129.6945 N   0  0  0  0  0  0  0  0  0  0  0  0
    6.7474   46.6533  129.8253 H   0  0  0  0  0  0  0  0  0  0  0  0
    6.7453   49.4479  131.2648 O   0  0  0  0  0  0  0  0  0  0  0  0
    5.7849   50.3744  130.8778 C   0  0  0  0  0  0  0  0  0  0  0  0
 33 34  1  0  0  0
 34  1  1  0  0  0
  1  2  1  0  0  0
  2  3  1  0  0  0
  3  4  1  0  0  0
  4  5  1  0  0  0
  5  6  1  0  0  0
  5  7  1  0  0  0
  7 36  1  0  0  0
 36 37  1  0  0  0
  5  8  1  0  0  0
  8  9  1  0  0  0
  9 10  2  0  0  0
 10 11  1  0  0  0
 11 12  2  0  0  0
 12 13  1  0  0  0
 13 14  2  0  0  0
 14 15  1  0  0  0
 15 16  2  0  0  0
 16 17  1  0  0  0
 17 18  1  0  0  0
 18 19  1  0  0  0
 19 20  2  0  0  0
 19 21  1  0  0  0
 21 22  2  0  0  0
 22 23  1  0  0  0
 23 24  2  0  0  0
 24 25  1  0  0  0
 25 26  2  0  0  0
 26 27  1  0  0  0
 27 28  2  0  0  0
 28 29  1  0  0  0
 29 30  1  0  0  0
 30 31  2  0  0  0
  7  1  1  0  0  0
 31  8  1  0  0  0
 29  3  1  0  0  0
 14  9  1  0  0  0
 31 15  1  0  0  0
 21 16  1  0  0  0
 30 22  1  0  0  0
 28 23  1  0  0  0
 34 35  1  0  0  0
 18 32  1  0  0  0
M  END
> <minimizedAffinity>
6.44004

> <CNNscore>
0.1862379611

> <CNNaffinity>
7.1189985275

> <CNN_VS>
1.3258277178

> <CNNaffinity_variance>
0.2258048356

$$$$
[H]c1nc([H])c(N([H])C(=O)N2C([H])([H])C([H])([H])c3c([H])c([H])c([H])c([H])c3[C@@]2([H])c2c([H])c([H])c(OC(F)(F)F)c([H])c2[H])c([H])c1[H]


 31 34  0  0  0  0  0  0  0  0999 V2000
    9.7247   45.4704  131.7510 C   0  0  0  0  0  0  0  0  0  0  0  0
   10.0164   45.9981  130.4527 N   0  0  0  0  0  0  0  0  0  0  0  0
   11.0819   45.3736  129.6489 C   0  0  0  0  0  0  0  0  0  0  0  0
   10.6028   43.9344  129.4418 C   0  0  0  0  0  0  0  0  0  0  0  0
   10.5670   43.3068  130.7853 C   0  0  0  0  0  0  0  0  0  0  0  0
   10.9646   41.9659  130.8912 C   0  0  0  0  0  0  0  0  0  0  0  0
   10.9235   41.3869  132.1371 C   0  0  0  0  0  0  0  0  0  0  0  0
   10.5052   42.1058  133.2355 C   0  0  0  0  0  0  0  0  0  0  0  0
   10.1186   43.4152  133.1228 C   0  0  0  0  0  0  0  0  0  0  0  0
   10.1518   44.0284  131.8636 C   0  0  0  0  0  0  0  0  0  0  0  0
    9.3127   47.0672  129.8892 C   0  0  0  0  0  0  0  0  0  0  0  0
    9.6731   47.4818  128.7596 O   0  0  0  0  0  0  0  0  0  0  0  0
    8.2287   47.6687  130.5578 N   0  0  0  0  0  0  0  0  0  0  0  0
    7.9325   47.2783  131.5151 H   0  0  0  0  0  0  0  0  0  0  0  0
   11.4376   47.7081  134.9823 C   0  0  0  0  0  0  0  0  0  0  0  0
   12.1353   46.7064  134.3917 C   0  0  0  0  0  0  0  0  0  0  0  0
   11.5523   46.0144  133.3601 C   0  0  0  0  0  0  0  0  0  0  0  0
   10.2783   46.2716  132.8708 C   0  0  0  0  0  0  0  0  0  0  0  0
    9.5965   47.2862  133.4837 C   0  0  0  0  0  0  0  0  0  0  0  0
   10.1737   48.0042  134.5378 C   0  0  0  0  0  0  0  0  0  0  0  0
   11.9708   48.4377  136.0222 O   0  0  0  0  0  0  0  0  0  0  0  0
   14.1929   47.9299  135.5820 F   0  0  0  0  0  0  0  0  0  0  0  0
   13.3085   48.8357  136.1198 C   0  0  0  0  0  0  0  0  0  0  0  0
   13.4441   50.0097  135.3743 F   0  0  0  0  0  0  0  0  0  0  0  0
   13.7129   49.0773  137.4202 F   0  0  0  0  0  0  0  0  0  0  0  0
    7.4309   48.7462  130.1119 C   0  0  0  0  0  0  0  0  0  0  0  0
    7.9081   50.0527  130.2826 C   0  0  0  0  0  0  0  0  0  0  0  0
    7.1684   51.1395  129.8835 C   0  0  0  0  0  0  0  0  0  0  0  0
    5.9298   51.0122  129.2993 C   0  0  0  0  0  0  0  0  0  0  0  0
    5.4795   49.7623  129.1392 N   0  0  0  0  0  0  0  0  0  0  0  0
    6.1925   48.6584  129.5267 C   0  0  0  0  0  0  0  0  0  0  0  0
 22 23  1  0  0  0
 23 24  1  0  0  0
 23 25  1  0  0  0
 23 21  1  0  0  0
 21 15  1  0  0  0
 15 16  2  0  0  0
 16 17  1  0  0  0
 17 18  2  0  0  0
 18 19  1  0  0  0
 19 20  2  0  0  0
 18  1  1  0  0  0
  1  2  1  0  0  0
  2  3  1  0  0  0
  3  4  1  0  0  0
  4  5  1  0  0  0
  5  6  2  0  0  0
  6  7  1  0  0  0
  7  8  2  0  0  0
  8  9  1  0  0  0
  9 10  2  0  0  0
  2 11  1  0  0  0
 11 12  2  0  0  0
 11 13  1  0  0  0
 13 26  1  0  0  0
 26 27  2  0  0  0
 27 28  1  0  0  0
 28 29  2  0  0  0
 29 30  1  0  0  0
 30 31  2  0  0  0
 20 15  1  0  0  0
 10  1  1  0  0  0
 31 26  1  0  0  0
 10  5  1  0  0  0
 13 14  1  0  0  0
M  END
> <minimizedAffinity>
5.32078

> <CNNscore>
0.4969079792

> <CNNaffinity>
7.9227218628

> <CNN_VS>
3.9368636608

> <CNNaffinity_variance>
2.5316786766

$$$$
[H]c1nc([H])c(N([H])C(=O)N2C([H])([H])C([H])([H])c3c([H])c([H])c([H])c([H])c3[C@@]2([H])c2c([H])c([H])c(OC(F)(F)F)c([H])c2[H])c([H])c1[H]


 31 34  0  0  0  0  0  0  0  0999 V2000
    9.5363   44.7612  131.9745 C   0  0  0  0  0  0  0  0  0  0  0  0
    8.3963   44.7533  131.1087 N   0  0  0  0  0  0  0  0  0  0  0  0
    7.6894   43.4831  130.8676 C   0  0  0  0  0  0  0  0  0  0  0  0
    7.1934   43.0594  132.2526 C   0  0  0  0  0  0  0  0  0  0  0  0
    8.4035   42.8022  133.0709 C   0  0  0  0  0  0  0  0  0  0  0  0
    8.3685   41.7254  133.9690 C   0  0  0  0  0  0  0  0  0  0  0  0
    9.4900   41.4951  134.7296 C   0  0  0  0  0  0  0  0  0  0  0  0
   10.6025   42.2985  134.6072 C   0  0  0  0  0  0  0  0  0  0  0  0
   10.6279   43.3481  133.7274 C   0  0  0  0  0  0  0  0  0  0  0  0
    9.4974   43.6036  132.9403 C   0  0  0  0  0  0  0  0  0  0  0  0
    7.8947   45.9075  130.4989 C   0  0  0  0  0  0  0  0  0  0  0  0
    6.9133   45.7876  129.7242 O   0  0  0  0  0  0  0  0  0  0  0  0
    8.4634   47.1734  130.7398 N   0  0  0  0  0  0  0  0  0  0  0  0
    9.2907   47.2456  131.4231 H   0  0  0  0  0  0  0  0  0  0  0  0
   13.3609   44.9170  130.0430 C   0  0  0  0  0  0  0  0  0  0  0  0
   13.2675   44.9909  131.3939 C   0  0  0  0  0  0  0  0  0  0  0  0
   12.0251   44.9368  131.9740 C   0  0  0  0  0  0  0  0  0  0  0  0
   10.8383   44.8096  131.2641 C   0  0  0  0  0  0  0  0  0  0  0  0
   10.9605   44.7373  129.9040 C   0  0  0  0  0  0  0  0  0  0  0  0
   12.2189   44.7907  129.2929 C   0  0  0  0  0  0  0  0  0  0  0  0
   14.5806   44.9661  129.4043 O   0  0  0  0  0  0  0  0  0  0  0  0
   15.6371   42.9128  129.1651 F   0  0  0  0  0  0  0  0  0  0  0  0
   15.0669   43.9901  128.5278 C   0  0  0  0  0  0  0  0  0  0  0  0
   13.9717   43.4932  127.8164 F   0  0  0  0  0  0  0  0  0  0  0  0
   16.0030   44.4769  127.6335 F   0  0  0  0  0  0  0  0  0  0  0  0
    8.0627   48.4159  130.1993 C   0  0  0  0  0  0  0  0  0  0  0  0
    7.5253   48.4451  128.9055 C   0  0  0  0  0  0  0  0  0  0  0  0
    7.1341   49.6261  128.3226 C   0  0  0  0  0  0  0  0  0  0  0  0
    7.2452   50.8366  128.9663 C   0  0  0  0  0  0  0  0  0  0  0  0
    7.7593   50.8021  130.2013 N   0  0  0  0  0  0  0  0  0  0  0  0
    8.1587   49.6414  130.8098 C   0  0  0  0  0  0  0  0  0  0  0  0
 22 23  1  0  0  0
 23 24  1  0  0  0
 23 25  1  0  0  0
 23 21  1  0  0  0
 21 15  1  0  0  0
 15 16  2  0  0  0
 16 17  1  0  0  0
 17 18  2  0  0  0
 18 19  1  0  0  0
 19 20  2  0  0  0
 18  1  1  0  0  0
  1  2  1  0  0  0
  2  3  1  0  0  0
  3  4  1  0  0  0
  4  5  1  0  0  0
  5  6  2  0  0  0
  6  7  1  0  0  0
  7  8  2  0  0  0
  8  9  1  0  0  0
  9 10  2  0  0  0
  2 11  1  0  0  0
 11 12  2  0  0  0
 11 13  1  0  0  0
 13 26  1  0  0  0
 26 27  2  0  0  0
 27 28  1  0  0  0
 28 29  2  0  0  0
 29 30  1  0  0  0
 30 31  2  0  0  0
 20 15  1  0  0  0
 10  1  1  0  0  0
 31 26  1  0  0  0
 10  5  1  0  0  0
 13 14  1  0  0  0
M  END
> <minimizedAffinity>
12.29183

> <CNNscore>
0.4791067541

> <CNNaffinity>
7.9529409409

> <CNN_VS>
3.8103077412

> <CNNaffinity_variance>
4.6840734482

$$$$
[H]c1nc([H])c(N([H])C(=O)N2C([H])([H])C([H])([H])c3c([H])c([H])c([H])c([H])c3[C@@]2([H])c2c([H])c([H])c(OC(F)(F)F)c([H])c2[H])c([H])c1[H]


 31 34  0  0  0  0  0  0  0  0999 V2000
   10.2952   45.3791  131.6131 C   0  0  0  0  0  0  0  0  0  0  0  0
    9.0305   45.7952  132.1391 N   0  0  0  0  0  0  0  0  0  0  0  0
    8.4840   45.1039  133.3201 C   0  0  0  0  0  0  0  0  0  0  0  0
    9.5216   45.3555  134.4173 C   0  0  0  0  0  0  0  0  0  0  0  0
   10.7662   44.6768  133.9812 C   0  0  0  0  0  0  0  0  0  0  0  0
   11.5401   44.0379  134.9612 C   0  0  0  0  0  0  0  0  0  0  0  0
   12.6959   43.4159  134.5531 C   0  0  0  0  0  0  0  0  0  0  0  0
   13.0719   43.4255  133.2277 C   0  0  0  0  0  0  0  0  0  0  0  0
   12.3099   44.0520  132.2772 C   0  0  0  0  0  0  0  0  0  0  0  0
   11.1269   44.6930  132.6676 C   0  0  0  0  0  0  0  0  0  0  0  0
    8.2945   46.8565  131.6030 C   0  0  0  0  0  0  0  0  0  0  0  0
    7.1763   47.1169  132.1127 O   0  0  0  0  0  0  0  0  0  0  0  0
    8.7826   47.6199  130.5246 N   0  0  0  0  0  0  0  0  0  0  0  0
    9.7518   47.3841  130.1228 H   0  0  0  0  0  0  0  0  0  0  0  0
    9.9347   42.8732  128.1529 C   0  0  0  0  0  0  0  0  0  0  0  0
    9.2564   42.5799  129.2900 C   0  0  0  0  0  0  0  0  0  0  0  0
    9.3980   43.4072  130.3755 C   0  0  0  0  0  0  0  0  0  0  0  0
   10.1993   44.5413  130.3919 C   0  0  0  0  0  0  0  0  0  0  0  0
   10.8721   44.8142  129.2332 C   0  0  0  0  0  0  0  0  0  0  0  0
   10.7411   43.9826  128.1147 C   0  0  0  0  0  0  0  0  0  0  0  0
    9.8322   42.0797  127.0313 O   0  0  0  0  0  0  0  0  0  0  0  0
   10.0190   40.0804  128.1963 F   0  0  0  0  0  0  0  0  0  0  0  0
   10.1407   40.7160  126.9826 C   0  0  0  0  0  0  0  0  0  0  0  0
    9.2135   40.1145  126.1277 F   0  0  0  0  0  0  0  0  0  0  0  0
   11.4174   40.4613  126.5153 F   0  0  0  0  0  0  0  0  0  0  0  0
    8.1539   48.7131  129.8875 C   0  0  0  0  0  0  0  0  0  0  0  0
    7.9699   49.8989  130.6111 C   0  0  0  0  0  0  0  0  0  0  0  0
    7.3501   50.9884  130.0486 C   0  0  0  0  0  0  0  0  0  0  0  0
    6.8784   50.9809  128.7566 C   0  0  0  0  0  0  0  0  0  0  0  0
    7.0568   49.8457  128.0709 N   0  0  0  0  0  0  0  0  0  0  0  0
    7.6704   48.7425  128.6033 C   0  0  0  0  0  0  0  0  0  0  0  0
 22 23  1  0  0  0
 23 24  1  0  0  0
 23 25  1  0  0  0
 23 21  1  0  0  0
 21 15  1  0  0  0
 15 16  2  0  0  0
 16 17  1  0  0  0
 17 18  2  0  0  0
 18 19  1  0  0  0
 19 20  2  0  0  0
 18  1  1  0  0  0
  1  2  1  0  0  0
  2  3  1  0  0  0
  3  4  1  0  0  0
  4  5  1  0  0  0
  5  6  2  0  0  0
  6  7  1  0  0  0
  7  8  2  0  0  0
  8  9  1  0  0  0
  9 10  2  0  0  0
  2 11  1  0  0  0
 11 12  2  0  0  0
 11 13  1  0  0  0
 13 26  1  0  0  0
 26 27  2  0  0  0
 27 28  1  0  0  0
 28 29  2  0  0  0
 29 30  1  0  0  0
 30 31  2  0  0  0
 20 15  1  0  0  0
 10  1  1  0  0  0
 31 26  1  0  0  0
 10  5  1  0  0  0
 13 14  1  0  0  0
M  END
> <minimizedAffinity>
8.00555

> <CNNscore>
0.4629746377

> <CNNaffinity>
7.8367552757

> <CNN_VS>
3.6282188892

> <CNNaffinity_variance>
2.0614497662

$$$$
[H]c1nc([H])c(N([H])C(=O)N2C([H])([H])C([H])([H])c3c([H])c([H])c([H])c([H])c3[C@@]2([H])c2c([H])c([H])c(OC(F)(F)F)c([H])c2[H])c([H])c1[H]


 31 34  0  0  0  0  0  0  0  0999 V2000
    9.2215   46.8620  131.1297 C   0  0  0  0  0  0  0  0  0  0  0  0
    8.2569   45.8172  131.2944 N   0  0  0  0  0  0  0  0  0  0  0  0
    6.8255   46.1643  131.3358 C   0  0  0  0  0  0  0  0  0  0  0  0
    6.5535   46.8038  129.9716 C   0  0  0  0  0  0  0  0  0  0  0  0
    7.3609   48.0471  129.9227 C   0  0  0  0  0  0  0  0  0  0  0  0
    6.7940   49.1706  129.3033 C   0  0  0  0  0  0  0  0  0  0  0  0
    7.5486   50.3185  129.2548 C   0  0  0  0  0  0  0  0  0  0  0  0
    8.8145   50.3537  129.7973 C   0  0  0  0  0  0  0  0  0  0  0  0
    9.3604   49.2515  130.4003 C   0  0  0  0  0  0  0  0  0  0  0  0
    8.6112   48.0693  130.4630 C   0  0  0  0  0  0  0  0  0  0  0  0
    8.6057   44.4660  131.3868 C   0  0  0  0  0  0  0  0  0  0  0  0
    7.6866   43.6299  131.5706 O   0  0  0  0  0  0  0  0  0  0  0  0
    9.9445   44.0425  131.2767 N   0  0  0  0  0  0  0  0  0  0  0  0
   10.7062   44.7809  131.1005 H   0  0  0  0  0  0  0  0  0  0  0  0
   11.1577   48.0941  134.7513 C   0  0  0  0  0  0  0  0  0  0  0  0
   10.1713   48.8483  134.2061 C   0  0  0  0  0  0  0  0  0  0  0  0
    9.5760   48.4192  133.0467 C   0  0  0  0  0  0  0  0  0  0  0  0
    9.9178   47.2488  132.3819 C   0  0  0  0  0  0  0  0  0  0  0  0
   10.9150   46.5071  132.9524 C   0  0  0  0  0  0  0  0  0  0  0  0
   11.5349   46.9276  134.1350 C   0  0  0  0  0  0  0  0  0  0  0  0
   11.7920   48.4738  135.9138 O   0  0  0  0  0  0  0  0  0  0  0  0
   14.0280   48.0143  135.4910 F   0  0  0  0  0  0  0  0  0  0  0  0
   13.1178   48.9125  135.9977 C   0  0  0  0  0  0  0  0  0  0  0  0
   13.2209   50.0639  135.2128 F   0  0  0  0  0  0  0  0  0  0  0  0
   13.5141   49.2095  137.2892 F   0  0  0  0  0  0  0  0  0  0  0  0
   10.4396   42.7210  131.3476 C   0  0  0  0  0  0  0  0  0  0  0  0
    9.9268   41.7619  130.4641 C   0  0  0  0  0  0  0  0  0  0  0  0
   10.3586   40.4580  130.4984 C   0  0  0  0  0  0  0  0  0  0  0  0
   11.3089   40.0209  131.3915 C   0  0  0  0  0  0  0  0  0  0  0  0
   11.7945   40.9414  132.2327 N   0  0  0  0  0  0  0  0  0  0  0  0
   11.3845   42.2486  132.2238 C   0  0  0  0  0  0  0  0  0  0  0  0
 22 23  1  0  0  0
 23 24  1  0  0  0
 23 25  1  0  0  0
 23 21  1  0  0  0
 21 15  1  0  0  0
 15 16  2  0  0  0
 16 17  1  0  0  0
 17 18  2  0  0  0
 18 19  1  0  0  0
 19 20  2  0  0  0
 18  1  1  0  0  0
  1  2  1  0  0  0
  2  3  1  0  0  0
  3  4  1  0  0  0
  4  5  1  0  0  0
  5  6  2  0  0  0
  6  7  1  0  0  0
  7  8  2  0  0  0
  8  9  1  0  0  0
  9 10  2  0  0  0
  2 11  1  0  0  0
 11 12  2  0  0  0
 11 13  1  0  0  0
 13 26  1  0  0  0
 26 27  2  0  0  0
 27 28  1  0  0  0
 28 29  2  0  0  0
 29 30  1  0  0  0
 30 31  2  0  0  0
 20 15  1  0  0  0
 10  1  1  0  0  0
 31 26  1  0  0  0
 10  5  1  0  0  0
 13 14  1  0  0  0
M  END
> <minimizedAffinity>
10.87272

> <CNNscore>
0.4559924304

> <CNNaffinity>
7.5453696251

> <CNN_VS>
3.4406313896

> <CNNaffinity_variance>
2.7424488068

$$$$
[H]c1nc([H])c(N([H])C(=O)N2C([H])([H])C([H])([H])c3c([H])c([H])c([H])c([H])c3[C@@]2([H])c2c([H])c([H])c(OC(F)(F)F)c([H])c2[H])c([H])c1[H]


 31 34  0  0  0  0  0  0  0  0999 V2000
    8.8027   44.9858  129.9808 C   0  0  0  0  0  0  0  0  0  0  0  0
    9.3211   46.0669  129.1986 N   0  0  0  0  0  0  0  0  0  0  0  0
   10.5447   45.8542  128.4056 C   0  0  0  0  0  0  0  0  0  0  0  0
   10.1686   44.7412  127.4240 C   0  0  0  0  0  0  0  0  0  0  0  0
    9.8959   43.5346  128.2424 C   0  0  0  0  0  0  0  0  0  0  0  0
   10.3148   42.2946  127.7384 C   0  0  0  0  0  0  0  0  0  0  0  0
   10.0541   41.1787  128.4974 C   0  0  0  0  0  0  0  0  0  0  0  0
    9.4043   41.2849  129.7076 C   0  0  0  0  0  0  0  0  0  0  0  0
    8.9987   42.5003  130.1923 C   0  0  0  0  0  0  0  0  0  0  0  0
    9.2529   43.6529  129.4376 C   0  0  0  0  0  0  0  0  0  0  0  0
    8.7011   47.3181  129.1227 C   0  0  0  0  0  0  0  0  0  0  0  0
    9.2582   48.2130  128.4399 O   0  0  0  0  0  0  0  0  0  0  0  0
    7.4864   47.5788  129.7864 N   0  0  0  0  0  0  0  0  0  0  0  0
    7.0246   46.7860  130.3474 H   0  0  0  0  0  0  0  0  0  0  0  0
    9.7894   45.3030  134.1411 C   0  0  0  0  0  0  0  0  0  0  0  0
   10.7486   45.4426  133.1928 C   0  0  0  0  0  0  0  0  0  0  0  0
   10.3922   45.3349  131.8721 C   0  0  0  0  0  0  0  0  0  0  0  0
    9.0983   45.0893  131.4315 C   0  0  0  0  0  0  0  0  0  0  0  0
    8.1506   44.9526  132.4077 C   0  0  0  0  0  0  0  0  0  0  0  0
    8.4939   45.0591  133.7607 C   0  0  0  0  0  0  0  0  0  0  0  0
   10.0872   45.4009  135.4827 O   0  0  0  0  0  0  0  0  0  0  0  0
   10.7539   47.5171  136.1660 F   0  0  0  0  0  0  0  0  0  0  0  0
    9.8187   46.5154  136.2847 C   0  0  0  0  0  0  0  0  0  0  0  0
    8.6058   47.0544  135.8479 F   0  0  0  0  0  0  0  0  0  0  0  0
    9.7183   46.2088  137.6297 F   0  0  0  0  0  0  0  0  0  0  0  0
    6.7510   48.7853  129.7967 C   0  0  0  0  0  0  0  0  0  0  0  0
    7.3873   49.9577  130.2256 C   0  0  0  0  0  0  0  0  0  0  0  0
    6.7172   51.1562  130.2724 C   0  0  0  0  0  0  0  0  0  0  0  0
    5.3971   51.2760  129.9055 C   0  0  0  0  0  0  0  0  0  0  0  0
    4.7949   50.1529  129.4971 N   0  0  0  0  0  0  0  0  0  0  0  0
    5.4352   48.9430  129.4394 C   0  0  0  0  0  0  0  0  0  0  0  0
 22 23  1  0  0  0
 23 24  1  0  0  0
 23 25  1  0  0  0
 23 21  1  0  0  0
 21 15  1  0  0  0
 15 16  2  0  0  0
 16 17  1  0  0  0
 17 18  2  0  0  0
 18 19  1  0  0  0
 19 20  2  0  0  0
 18  1  1  0  0  0
  1  2  1  0  0  0
  2  3  1  0  0  0
  3  4  1  0  0  0
  4  5  1  0  0  0
  5  6  2  0  0  0
  6  7  1  0  0  0
  7  8  2  0  0  0
  8  9  1  0  0  0
  9 10  2  0  0  0
  2 11  1  0  0  0
 11 12  2  0  0  0
 11 13  1  0  0  0
 13 26  1  0  0  0
 26 27  2  0  0  0
 27 28  1  0  0  0
 28 29  2  0  0  0
 29 30  1  0  0  0
 30 31  2  0  0  0
 20 15  1  0  0  0
 10  1  1  0  0  0
 31 26  1  0  0  0
 10  5  1  0  0  0
 13 14  1  0  0  0
M  END
> <minimizedAffinity>
7.40587

> <CNNscore>
0.4368400276

> <CNNaffinity>
7.7689886093

> <CNN_VS>
3.3938052654

> <CNNaffinity_variance>
2.4622597694

$$$$
[H]c1nc([H])c(N([H])C(=O)N2C([H])([H])C([H])([H])c3c([H])c([H])c([H])c([H])c3[C@@]2([H])c2c([H])c([H])c(OC(F)(F)F)c([H])c2[H])c([H])c1[H]


 31 34  0  0  0  0  0  0  0  0999 V2000
    9.1741   47.0676  131.0892 C   0  0  0  0  0  0  0  0  0  0  0  0
    9.7303   47.8510  132.1504 N   0  0  0  0  0  0  0  0  0  0  0  0
    9.8658   49.3072  131.9702 C   0  0  0  0  0  0  0  0  0  0  0  0
    8.4295   49.7967  131.7676 C   0  0  0  0  0  0  0  0  0  0  0  0
    7.9526   49.1859  130.5028 C   0  0  0  0  0  0  0  0  0  0  0  0
    7.1405   49.9653  129.6660 C   0  0  0  0  0  0  0  0  0  0  0  0
    6.6959   49.3927  128.4982 C   0  0  0  0  0  0  0  0  0  0  0  0
    7.0405   48.0995  128.1710 C   0  0  0  0  0  0  0  0  0  0  0  0
    7.8341   47.3454  128.9944 C   0  0  0  0  0  0  0  0  0  0  0  0
    8.3006   47.9064  130.1904 C   0  0  0  0  0  0  0  0  0  0  0  0
   10.1263   47.3034  133.3748 C   0  0  0  0  0  0  0  0  0  0  0  0
   10.6404   48.0703  134.2263 O   0  0  0  0  0  0  0  0  0  0  0  0
    9.9572   45.9339  133.6574 N   0  0  0  0  0  0  0  0  0  0  0  0
    9.4964   45.3071  132.9149 H   0  0  0  0  0  0  0  0  0  0  0  0
   12.1383   44.8635  128.9124 C   0  0  0  0  0  0  0  0  0  0  0  0
   12.1235   44.8452  130.2683 C   0  0  0  0  0  0  0  0  0  0  0  0
   11.1581   45.5632  130.9280 C   0  0  0  0  0  0  0  0  0  0  0  0
   10.1799   46.3191  130.2952 C   0  0  0  0  0  0  0  0  0  0  0  0
   10.2173   46.3206  128.9282 C   0  0  0  0  0  0  0  0  0  0  0  0
   11.1942   45.5946  128.2365 C   0  0  0  0  0  0  0  0  0  0  0  0
   13.0831   44.1624  128.1956 O   0  0  0  0  0  0  0  0  0  0  0  0
   15.1168   45.2544  128.4427 F   0  0  0  0  0  0  0  0  0  0  0  0
   14.4365   44.0625  128.5355 C   0  0  0  0  0  0  0  0  0  0  0  0
   14.4966   43.6775  129.8773 F   0  0  0  0  0  0  0  0  0  0  0  0
   15.1252   43.1395  127.7695 F   0  0  0  0  0  0  0  0  0  0  0  0
   10.3058   45.2485  134.8428 C   0  0  0  0  0  0  0  0  0  0  0  0
   11.1887   44.1637  134.7582 C   0  0  0  0  0  0  0  0  0  0  0  0
   11.5500   43.4499  135.8751 C   0  0  0  0  0  0  0  0  0  0  0  0
   11.0724   43.7535  137.1288 C   0  0  0  0  0  0  0  0  0  0  0  0
   10.2295   44.7902  137.2030 N   0  0  0  0  0  0  0  0  0  0  0  0
    9.8499   45.5213  136.1083 C   0  0  0  0  0  0  0  0  0  0  0  0
 22 23  1  0  0  0
 23 24  1  0  0  0
 23 25  1  0  0  0
 23 21  1  0  0  0
 21 15  1  0  0  0
 15 16  2  0  0  0
 16 17  1  0  0  0
 17 18  2  0  0  0
 18 19  1  0  0  0
 19 20  2  0  0  0
 18  1  1  0  0  0
  1  2  1  0  0  0
  2  3  1  0  0  0
  3  4  1  0  0  0
  4  5  1  0  0  0
  5  6  2  0  0  0
  6  7  1  0  0  0
  7  8  2  0  0  0
  8  9  1  0  0  0
  9 10  2  0  0  0
  2 11  1  0  0  0
 11 12  2  0  0  0
 11 13  1  0  0  0
 13 26  1  0  0  0
 26 27  2  0  0  0
 27 28  1  0  0  0
 28 29  2  0  0  0
 29 30  1  0  0  0
 30 31  2  0  0  0
 20 15  1  0  0  0
 10  1  1  0  0  0
 31 26  1  0  0  0
 10  5  1  0  0  0
 13 14  1  0  0  0
M  END
> <minimizedAffinity>
4.10184

> <CNNscore>
0.4166212678

> <CNNaffinity>
7.2332816124

> <CNN_VS>
3.0135388374

> <CNNaffinity_variance>
0.8706300855

$$$$
[H]c1nc([H])c(N([H])C(=O)N2C([H])([H])C([H])([H])c3c([H])c([H])c([H])c([H])c3[C@@]2([H])c2c([H])c([H])c(OC(F)(F)F)c([H])c2[H])c([H])c1[H]


 31 34  0  0  0  0  0  0  0  0999 V2000
    8.2662   47.7113  130.3321 C   0  0  0  0  0  0  0  0  0  0  0  0
    7.3635   46.8821  129.5926 N   0  0  0  0  0  0  0  0  0  0  0  0
    6.0195   47.3947  129.2728 C   0  0  0  0  0  0  0  0  0  0  0  0
    6.2838   48.6337  128.4133 C   0  0  0  0  0  0  0  0  0  0  0  0
    6.9876   49.6062  129.2844 C   0  0  0  0  0  0  0  0  0  0  0  0
    6.6639   50.9636  129.1435 C   0  0  0  0  0  0  0  0  0  0  0  0
    7.3234   51.8616  129.9485 C   0  0  0  0  0  0  0  0  0  0  0  0
    8.2665   51.4338  130.8572 C   0  0  0  0  0  0  0  0  0  0  0  0
    8.5765   50.1059  130.9881 C   0  0  0  0  0  0  0  0  0  0  0  0
    7.9178   49.1707  130.1793 C   0  0  0  0  0  0  0  0  0  0  0  0
    7.7069   45.6094  129.1257 C   0  0  0  0  0  0  0  0  0  0  0  0
    6.8288   44.9452  128.5211 O   0  0  0  0  0  0  0  0  0  0  0  0
    8.9966   45.0777  129.3198 N   0  0  0  0  0  0  0  0  0  0  0  0
    9.7318   45.6789  129.8244 H   0  0  0  0  0  0  0  0  0  0  0  0
    8.6902   46.7777  134.4951 C   0  0  0  0  0  0  0  0  0  0  0  0
    9.1660   47.9466  133.9991 C   0  0  0  0  0  0  0  0  0  0  0  0
    9.0100   48.2086  132.6611 C   0  0  0  0  0  0  0  0  0  0  0  0
    8.3895   47.3475  131.7655 C   0  0  0  0  0  0  0  0  0  0  0  0
    7.9189   46.1762  132.2913 C   0  0  0  0  0  0  0  0  0  0  0  0
    8.0681   45.8903  133.6536 C   0  0  0  0  0  0  0  0  0  0  0  0
    8.8176   46.4597  135.8296 O   0  0  0  0  0  0  0  0  0  0  0  0
   10.8392   45.3395  135.6111 F   0  0  0  0  0  0  0  0  0  0  0  0
   10.0030   46.0442  136.4455 C   0  0  0  0  0  0  0  0  0  0  0  0
   10.6986   47.1968  136.8194 F   0  0  0  0  0  0  0  0  0  0  0  0
    9.7909   45.2613  137.5659 F   0  0  0  0  0  0  0  0  0  0  0  0
    9.4813   43.8172  128.9041 C   0  0  0  0  0  0  0  0  0  0  0  0
   10.0768   43.7085  127.6403 C   0  0  0  0  0  0  0  0  0  0  0  0
   10.5509   42.5052  127.1768 C   0  0  0  0  0  0  0  0  0  0  0  0
   10.4705   41.3484  127.9166 C   0  0  0  0  0  0  0  0  0  0  0  0
    9.9007   41.4587  129.1224 N   0  0  0  0  0  0  0  0  0  0  0  0
    9.4182   42.6435  129.6128 C   0  0  0  0  0  0  0  0  0  0  0  0
 22 23  1  0  0  0
 23 24  1  0  0  0
 23 25  1  0  0  0
 23 21  1  0  0  0
 21 15  1  0  0  0
 15 16  2  0  0  0
 16 17  1  0  0  0
 17 18  2  0  0  0
 18 19  1  0  0  0
 19 20  2  0  0  0
 18  1  1  0  0  0
  1  2  1  0  0  0
  2  3  1  0  0  0
  3  4  1  0  0  0
  4  5  1  0  0  0
  5  6  2  0  0  0
  6  7  1  0  0  0
  7  8  2  0  0  0
  8  9  1  0  0  0
  9 10  2  0  0  0
  2 11  1  0  0  0
 11 12  2  0  0  0
 11 13  1  0  0  0
 13 26  1  0  0  0
 26 27  2  0  0  0
 27 28  1  0  0  0
 28 29  2  0  0  0
 29 30  1  0  0  0
 30 31  2  0  0  0
 20 15  1  0  0  0
 10  1  1  0  0  0
 31 26  1  0  0  0
 10  5  1  0  0  0
 13 14  1  0  0  0
M  END
> <minimizedAffinity>
12.61204

> <CNNscore>
0.3791678846

> <CNNaffinity>
7.2839064598

> <CNN_VS>
2.7618234158

> <CNNaffinity_variance>
1.8867137432

$$$$
[H]c1nc([H])c(N([H])C(=O)N2C([H])([H])C([H])([H])c3c([H])c([H])c([H])c([H])c3[C@@]2([H])c2c([H])c([H])c(OC(F)(F)F)c([H])c2[H])c([H])c1[H]


 31 34  0  0  0  0  0  0  0  0999 V2000
    8.8364   46.3834  130.9902 C   0  0  0  0  0  0  0  0  0  0  0  0
    9.0280   46.4325  132.4080 N   0  0  0  0  0  0  0  0  0  0  0  0
    9.3205   47.7280  133.0465 C   0  0  0  0  0  0  0  0  0  0  0  0
    8.0904   48.5857  132.7384 C   0  0  0  0  0  0  0  0  0  0  0  0
    8.0577   48.7585  131.2656 C   0  0  0  0  0  0  0  0  0  0  0  0
    7.6565   50.0047  130.7624 C   0  0  0  0  0  0  0  0  0  0  0  0
    7.6216   50.1579  129.3969 C   0  0  0  0  0  0  0  0  0  0  0  0
    7.9695   49.1190  128.5616 C   0  0  0  0  0  0  0  0  0  0  0  0
    8.3601   47.9050  129.0617 C   0  0  0  0  0  0  0  0  0  0  0  0
    8.4044   47.7237  130.4502 C   0  0  0  0  0  0  0  0  0  0  0  0
    8.9191   45.3070  133.2309 C   0  0  0  0  0  0  0  0  0  0  0  0
    9.1455   45.4484  134.4582 O   0  0  0  0  0  0  0  0  0  0  0  0
    8.5646   44.0469  132.7109 N   0  0  0  0  0  0  0  0  0  0  0  0
    8.3584   43.9625  131.6588 H   0  0  0  0  0  0  0  0  0  0  0  0
   12.2791   44.8678  128.9328 C   0  0  0  0  0  0  0  0  0  0  0  0
   12.2573   44.9291  130.2873 C   0  0  0  0  0  0  0  0  0  0  0  0
   11.1364   45.4199  130.9082 C   0  0  0  0  0  0  0  0  0  0  0  0
   10.0053   45.8652  130.2368 C   0  0  0  0  0  0  0  0  0  0  0  0
   10.0533   45.7926  128.8721 C   0  0  0  0  0  0  0  0  0  0  0  0
   11.1875   45.2950  128.2197 C   0  0  0  0  0  0  0  0  0  0  0  0
   13.3763   44.3847  128.2539 O   0  0  0  0  0  0  0  0  0  0  0  0
   15.3409   43.1524  128.1469 F   0  0  0  0  0  0  0  0  0  0  0  0
   14.6166   44.0983  128.8344 C   0  0  0  0  0  0  0  0  0  0  0  0
   15.3696   45.2748  128.7982 F   0  0  0  0  0  0  0  0  0  0  0  0
   14.5194   43.6645  130.1442 F   0  0  0  0  0  0  0  0  0  0  0  0
    8.4159   42.8329  133.4183 C   0  0  0  0  0  0  0  0  0  0  0  0
    7.1389   42.2650  133.5195 C   0  0  0  0  0  0  0  0  0  0  0  0
    6.9317   41.0948  134.2090 C   0  0  0  0  0  0  0  0  0  0  0  0
    7.9532   40.4183  134.8341 C   0  0  0  0  0  0  0  0  0  0  0  0
    9.1702   40.9657  134.7341 N   0  0  0  0  0  0  0  0  0  0  0  0
    9.4092   42.1310  134.0543 C   0  0  0  0  0  0  0  0  0  0  0  0
 22 23  1  0  0  0
 23 24  1  0  0  0
 23 25  1  0  0  0
 23 21  1  0  0  0
 21 15  1  0  0  0
 15 16  2  0  0  0
 16 17  1  0  0  0
 17 18  2  0  0  0
 18 19  1  0  0  0
 19 20  2  0  0  0
 18  1  1  0  0  0
  1  2  1  0  0  0
  2  3  1  0  0  0
  3  4  1  0  0  0
  4  5  1  0  0  0
  5  6  2  0  0  0
  6  7  1  0  0  0
  7  8  2  0  0  0
  8  9  1  0  0  0
  9 10  2  0  0  0
  2 11  1  0  0  0
 11 12  2  0  0  0
 11 13  1  0  0  0
 13 26  1  0  0  0
 26 27  2  0  0  0
 27 28  1  0  0  0
 28 29  2  0  0  0
 29 30  1  0  0  0
 30 31  2  0  0  0
 20 15  1  0  0  0
 10  1  1  0  0  0
 31 26  1  0  0  0
 10  5  1  0  0  0
 13 14  1  0  0  0
M  END
> <minimizedAffinity>
8.85995

> <CNNscore>
0.3778370917

> <CNNaffinity>
7.3468985558

> <CNN_VS>
2.7759308815

> <CNNaffinity_variance>
2.1463038921

$$$$
[H]c1nc([H])c(N([H])C(=O)N2C([H])([H])C([H])([H])c3c([H])c([H])c([H])c([H])c3[C@@]2([H])c2c([H])c([H])c(OC(F)(F)F)c([H])c2[H])c([H])c1[H]


 31 34  0  0  0  0  0  0  0  0999 V2000
    9.3778   46.3455  132.7191 C   0  0  0  0  0  0  0  0  0  0  0  0
   10.6464   45.7286  132.4756 N   0  0  0  0  0  0  0  0  0  0  0  0
   11.7799   46.0490  133.3609 C   0  0  0  0  0  0  0  0  0  0  0  0
   11.3211   45.5811  134.7444 C   0  0  0  0  0  0  0  0  0  0  0  0
   10.1575   46.4259  135.1084 C   0  0  0  0  0  0  0  0  0  0  0  0
   10.0360   46.8300  136.4460 C   0  0  0  0  0  0  0  0  0  0  0  0
    8.9527   47.6074  136.7796 C   0  0  0  0  0  0  0  0  0  0  0  0
    8.0255   47.9708  135.8276 C   0  0  0  0  0  0  0  0  0  0  0  0
    8.1520   47.5716  134.5234 C   0  0  0  0  0  0  0  0  0  0  0  0
    9.2478   46.7789  134.1578 C   0  0  0  0  0  0  0  0  0  0  0  0
   10.8588   44.8030  131.4490 C   0  0  0  0  0  0  0  0  0  0  0  0
   12.0197   44.3493  131.2935 O   0  0  0  0  0  0  0  0  0  0  0  0
    9.8097   44.3826  130.6085 N   0  0  0  0  0  0  0  0  0  0  0  0
    8.8231   44.7751  130.7794 H   0  0  0  0  0  0  0  0  0  0  0  0
    8.3781   49.5070  130.0009 C   0  0  0  0  0  0  0  0  0  0  0  0
    7.7715   48.2979  129.9049 C   0  0  0  0  0  0  0  0  0  0  0  0
    8.1187   47.3123  130.7942 C   0  0  0  0  0  0  0  0  0  0  0  0
    9.0621   47.4682  131.8013 C   0  0  0  0  0  0  0  0  0  0  0  0
    9.6586   48.6964  131.8762 C   0  0  0  0  0  0  0  0  0  0  0  0
    9.3184   49.7151  130.9783 C   0  0  0  0  0  0  0  0  0  0  0  0
    8.0708   50.5347  129.1364 O   0  0  0  0  0  0  0  0  0  0  0  0
    5.7791   50.3796  128.7995 F   0  0  0  0  0  0  0  0  0  0  0  0
    6.8424   51.2027  129.0889 C   0  0  0  0  0  0  0  0  0  0  0  0
    6.6052   51.7194  130.3652 F   0  0  0  0  0  0  0  0  0  0  0  0
    6.8186   52.2372  128.1712 F   0  0  0  0  0  0  0  0  0  0  0  0
    9.8770   43.4596  129.5408 C   0  0  0  0  0  0  0  0  0  0  0  0
   10.1008   43.9443  128.2452 C   0  0  0  0  0  0  0  0  0  0  0  0
   10.1593   43.0952  127.1667 C   0  0  0  0  0  0  0  0  0  0  0  0
   10.0036   41.7344  127.2922 C   0  0  0  0  0  0  0  0  0  0  0  0
    9.7899   41.2778  128.5318 N   0  0  0  0  0  0  0  0  0  0  0  0
    9.7260   42.0982  129.6272 C   0  0  0  0  0  0  0  0  0  0  0  0
 22 23  1  0  0  0
 23 24  1  0  0  0
 23 25  1  0  0  0
 23 21  1  0  0  0
 21 15  1  0  0  0
 15 16  2  0  0  0
 16 17  1  0  0  0
 17 18  2  0  0  0
 18 19  1  0  0  0
 19 20  2  0  0  0
 18  1  1  0  0  0
  1  2  1  0  0  0
  2  3  1  0  0  0
  3  4  1  0  0  0
  4  5  1  0  0  0
  5  6  2  0  0  0
  6  7  1  0  0  0
  7  8  2  0  0  0
  8  9  1  0  0  0
  9 10  2  0  0  0
  2 11  1  0  0  0
 11 12  2  0  0  0
 11 13  1  0  0  0
 13 26  1  0  0  0
 26 27  2  0  0  0
 27 28  1  0  0  0
 28 29  2  0  0  0
 29 30  1  0  0  0
 30 31  2  0  0  0
 20 15  1  0  0  0
 10  1  1  0  0  0
 31 26  1  0  0  0
 10  5  1  0  0  0
 13 14  1  0  0  0
M  END
> <minimizedAffinity>
6.56287

> <CNNscore>
0.3725817204

> <CNNaffinity>
7.3231544495

> <CNN_VS>
2.7284734249

> <CNNaffinity_variance>
1.4258699417

$$$$
[H]OC1(C(=O)N([H])[C@]([H])(C(=O)N([H])[C@]([H])(C(=O)N([H])C([H])([H])c2c([H])c([H])c([H])c([H])c2[H])C([H])([H])C([H])([H])C([H])([H])C([H])([H])N([H])[H])C([H])([H])c2c([H])n([H])c3c([H])c([H])c([H])c([H])c23)C([H])([H])N2C([H])([H])C([H])([H])C1([H])C([H])([H])C2([H])[H]


 49 53  0  0  0  0  0  0  0  0999 V2000
    7.9279   45.1019  129.7746 C   0  0  0  0  0  0  0  0  0  0  0  0
    6.6309   47.1955  129.6335 C   0  0  0  0  0  0  0  0  0  0  0  0
    5.8462   46.7262  130.4915 O   0  0  0  0  0  0  0  0  0  0  0  0
    7.7158   46.3895  129.2395 N   0  0  0  0  0  0  0  0  0  0  0  0
    8.3816   46.7614  128.5308 H   0  0  0  0  0  0  0  0  0  0  0  0
    5.9887   48.3131  127.7313 O   0  0  0  0  0  0  0  0  0  0  0  0
    6.4287   48.5267  129.0629 C   0  0  0  0  0  0  0  0  0  0  0  0
    5.3738   49.2570  129.8508 C   0  0  0  0  0  0  0  0  0  0  0  0
    5.7897   50.6630  129.9239 N   0  0  0  0  0  0  0  0  0  0  0  0
    6.0948   51.1023  128.6008 C   0  0  0  0  0  0  0  0  0  0  0  0
    7.4754   50.6087  128.2166 C   0  0  0  0  0  0  0  0  0  0  0  0
    7.7072   49.3219  129.0480 C   0  0  0  0  0  0  0  0  0  0  0  0
    8.0340   49.8253  130.4234 C   0  0  0  0  0  0  0  0  0  0  0  0
    6.8865   50.7373  130.8588 C   0  0  0  0  0  0  0  0  0  0  0  0
    4.9913   48.2558  127.7547 H   0  0  0  0  0  0  0  0  0  0  0  0
    8.4816   45.2446  131.1681 C   0  0  0  0  0  0  0  0  0  0  0  0
    9.4680   46.0026  131.3208 O   0  0  0  0  0  0  0  0  0  0  0  0
    7.9424   44.5714  132.2763 N   0  0  0  0  0  0  0  0  0  0  0  0
    7.1242   43.9497  132.1461 H   0  0  0  0  0  0  0  0  0  0  0  0
    8.4980   44.7264  133.6001 C   0  0  0  0  0  0  0  0  0  0  0  0
    9.9813   44.8605  133.4840 C   0  0  0  0  0  0  0  0  0  0  0  0
   10.6533   43.8462  133.2019 O   0  0  0  0  0  0  0  0  0  0  0  0
   10.6375   46.1001  133.6839 N   0  0  0  0  0  0  0  0  0  0  0  0
   10.0489   46.9360  133.9226 H   0  0  0  0  0  0  0  0  0  0  0  0
   12.0588   46.1745  133.5574 C   0  0  0  0  0  0  0  0  0  0  0  0
   12.7284   47.0269  134.5531 C   0  0  0  0  0  0  0  0  0  0  0  0
   14.0069   46.8861  135.0117 C   0  0  0  0  0  0  0  0  0  0  0  0
   14.5592   47.7354  135.9520 C   0  0  0  0  0  0  0  0  0  0  0  0
   13.8101   48.7722  136.4612 C   0  0  0  0  0  0  0  0  0  0  0  0
   12.5292   48.9346  136.0190 C   0  0  0  0  0  0  0  0  0  0  0  0
   11.9942   48.0740  135.0774 C   0  0  0  0  0  0  0  0  0  0  0  0
    8.1318   43.5241  134.4492 C   0  0  0  0  0  0  0  0  0  0  0  0
    8.6534   42.2584  133.8332 C   0  0  0  0  0  0  0  0  0  0  0  0
    7.5443   41.3817  133.3401 C   0  0  0  0  0  0  0  0  0  0  0  0
    6.2513   41.5755  134.0931 C   0  0  0  0  0  0  0  0  0  0  0  0
    5.8176   40.2841  134.6143 N   0  0  0  0  0  0  0  0  0  0  0  0
    6.0104   40.1933  135.6345 H   0  0  0  0  0  0  0  0  0  0  0  0
    6.2482   39.5471  134.0310 H   0  0  0  0  0  0  0  0  0  0  0  0
    8.8165   44.1799  128.9991 C   0  0  0  0  0  0  0  0  0  0  0  0
    9.9781   43.6535  129.7104 C   0  0  0  0  0  0  0  0  0  0  0  0
    9.9439   42.5957  130.6120 C   0  0  0  0  0  0  0  0  0  0  0  0
   11.1927   42.3506  131.0571 N   0  0  0  0  0  0  0  0  0  0  0  0
   12.0507   43.2073  130.4839 C   0  0  0  0  0  0  0  0  0  0  0  0
   13.4095   43.3622  130.6179 C   0  0  0  0  0  0  0  0  0  0  0  0
   14.0300   44.3557  129.8963 C   0  0  0  0  0  0  0  0  0  0  0  0
   13.3168   45.1801  129.0577 C   0  0  0  0  0  0  0  0  0  0  0  0
   11.9583   45.0104  128.9354 C   0  0  0  0  0  0  0  0  0  0  0  0
   11.2971   44.0274  129.6389 C   0  0  0  0  0  0  0  0  0  0  0  0
   11.4776   41.6129  131.7430 H   0  0  0  0  0  0  0  0  0  0  0  0
  6  7  1  0  0  0
  7  8  1  0  0  0
  8  9  1  0  0  0
  9 10  1  0  0  0
 10 11  1  0  0  0
 11 12  1  0  0  0
 12 13  1  0  0  0
 13 14  1  0  0  0
  7  2  1  0  0  0
  2  3  2  0  0  0
  2  4  1  0  0  0
  4  1  1  0  0  0
  1 39  1  0  0  0
 39 40  1  0  0  0
 40 41  2  0  0  0
 41 42  1  0  0  0
 42 43  1  0  0  0
 43 44  2  0  0  0
 44 45  1  0  0  0
 45 46  2  0  0  0
 46 47  1  0  0  0
 47 48  2  0  0  0
  1 16  1  0  0  0
 16 17  2  0  0  0
 16 18  1  0  0  0
 18 20  1  0  0  0
 20 32  1  0  0  0
 32 33  1  0  0  0
 33 34  1  0  0  0
 34 35  1  0  0  0
 35 36  1  0  0  0
 20 21  1  0  0  0
 21 22  2  0  0  0
 21 23  1  0  0  0
 23 25  1  0  0  0
 25 26  1  0  0  0
 26 27  2  0  0  0
 27 28  1  0  0  0
 28 29  2  0  0  0
 29 30  1  0  0  0
 30 31  2  0  0  0
 12  7  1  0  0  0
 48 40  1  0  0  0
 31 26  1  0  0  0
 14  9  1  0  0  0
 48 43  1  0  0  0
  6 15  1  0  0  0
  4  5  1  0  0  0
 42 49  1  0  0  0
 18 19  1  0  0  0
 36 37  1  0  0  0
 36 38  1  0  0  0
 23 24  1  0  0  0
M  END
> <minimizedAffinity>
14.02103

> <CNNscore>
0.5324314237

> <CNNaffinity>
7.9957914352

> <CNN_VS>
4.2572107315

> <CNNaffinity_variance>
0.7540839911

$$$$
[H]OC1(C(=O)N([H])[C@]([H])(C(=O)N([H])[C@]([H])(C(=O)N([H])C([H])([H])c2c([H])c([H])c([H])c([H])c2[H])C([H])([H])C([H])([H])C([H])([H])C([H])([H])N([H])[H])C([H])([H])c2c([H])n([H])c3c([H])c([H])c([H])c([H])c23)C([H])([H])N2C([H])([H])C([H])([H])C1([H])C([H])([H])C2([H])[H]


 49 53  0  0  0  0  0  0  0  0999 V2000
   10.0829   47.5084  130.0502 C   0  0  0  0  0  0  0  0  0  0  0  0
    9.5135   48.2075  132.3464 C   0  0  0  0  0  0  0  0  0  0  0  0
   10.3452   49.1388  132.2317 O   0  0  0  0  0  0  0  0  0  0  0  0
    9.3494   47.3475  131.2440 N   0  0  0  0  0  0  0  0  0  0  0  0
    8.6613   46.5696  131.3167 H   0  0  0  0  0  0  0  0  0  0  0  0
    7.8359   49.1080  133.6326 O   0  0  0  0  0  0  0  0  0  0  0  0
    8.7442   48.0198  133.5758 C   0  0  0  0  0  0  0  0  0  0  0  0
    7.9940   46.7163  133.5059 C   0  0  0  0  0  0  0  0  0  0  0  0
    8.0198   46.1339  134.8532 N   0  0  0  0  0  0  0  0  0  0  0  0
    7.5871   47.1340  135.7747 C   0  0  0  0  0  0  0  0  0  0  0  0
    8.7336   48.0852  136.0541 C   0  0  0  0  0  0  0  0  0  0  0  0
    9.6315   48.0421  134.7921 C   0  0  0  0  0  0  0  0  0  0  0  0
   10.3866   46.7518  134.9206 C   0  0  0  0  0  0  0  0  0  0  0  0
    9.3548   45.6343  135.0785 C   0  0  0  0  0  0  0  0  0  0  0  0
    7.0030   48.8235  133.1592 H   0  0  0  0  0  0  0  0  0  0  0  0
    9.5368   46.5577  129.0174 C   0  0  0  0  0  0  0  0  0  0  0  0
    8.4141   46.0473  129.2414 O   0  0  0  0  0  0  0  0  0  0  0  0
   10.2280   46.2307  127.8396 N   0  0  0  0  0  0  0  0  0  0  0  0
   11.1534   46.6587  127.6565 H   0  0  0  0  0  0  0  0  0  0  0  0
    9.6790   45.3126  126.8697 C   0  0  0  0  0  0  0  0  0  0  0  0
    9.4874   43.9834  127.5237 C   0  0  0  0  0  0  0  0  0  0  0  0
    8.9084   43.0800  126.8843 O   0  0  0  0  0  0  0  0  0  0  0  0
    9.9436   43.7254  128.8400 N   0  0  0  0  0  0  0  0  0  0  0  0
   10.4246   44.5032  129.3557 H   0  0  0  0  0  0  0  0  0  0  0  0
    9.7380   42.4349  129.4178 C   0  0  0  0  0  0  0  0  0  0  0  0
    9.5329   42.4311  130.8753 C   0  0  0  0  0  0  0  0  0  0  0  0
   10.2985   41.7799  131.7996 C   0  0  0  0  0  0  0  0  0  0  0  0
   10.0338   41.8302  133.1553 C   0  0  0  0  0  0  0  0  0  0  0  0
    8.9609   42.5595  133.6163 C   0  0  0  0  0  0  0  0  0  0  0  0
    8.1800   43.2196  132.7126 C   0  0  0  0  0  0  0  0  0  0  0  0
    8.4612   43.1572  131.3596 C   0  0  0  0  0  0  0  0  0  0  0  0
   10.6217   45.1987  125.6869 C   0  0  0  0  0  0  0  0  0  0  0  0
   10.0605   45.9075  124.4885 C   0  0  0  0  0  0  0  0  0  0  0  0
   10.3202   47.3811  124.5417 C   0  0  0  0  0  0  0  0  0  0  0  0
    9.1680   48.2086  124.0275 C   0  0  0  0  0  0  0  0  0  0  0  0
    9.7037   49.3932  123.3663 N   0  0  0  0  0  0  0  0  0  0  0  0
    9.6695   49.3064  122.3283 H   0  0  0  0  0  0  0  0  0  0  0  0
   10.6477   49.5692  123.7494 H   0  0  0  0  0  0  0  0  0  0  0  0
   11.5664   47.3249  130.1321 C   0  0  0  0  0  0  0  0  0  0  0  0
   12.0334   45.9776  130.4471 C   0  0  0  0  0  0  0  0  0  0  0  0
   12.4410   45.0390  129.5060 C   0  0  0  0  0  0  0  0  0  0  0  0
   12.8384   43.9175  130.1401 N   0  0  0  0  0  0  0  0  0  0  0  0
   12.7079   44.0797  131.4650 C   0  0  0  0  0  0  0  0  0  0  0  0
   12.9689   43.2343  132.5163 C   0  0  0  0  0  0  0  0  0  0  0  0
   12.7208   43.6812  133.7936 C   0  0  0  0  0  0  0  0  0  0  0  0
   12.2233   44.9424  134.0242 C   0  0  0  0  0  0  0  0  0  0  0  0
   11.9687   45.7750  132.9606 C   0  0  0  0  0  0  0  0  0  0  0  0
   12.2035   45.3681  131.6654 C   0  0  0  0  0  0  0  0  0  0  0  0
   13.1974   43.0415  129.6934 H   0  0  0  0  0  0  0  0  0  0  0  0
  6  7  1  0  0  0
  7  8  1  0  0  0
  8  9  1  0  0  0
  9 10  1  0  0  0
 10 11  1  0  0  0
 11 12  1  0  0  0
 12 13  1  0  0  0
 13 14  1  0  0  0
  7  2  1  0  0  0
  2  3  2  0  0  0
  2  4  1  0  0  0
  4  1  1  0  0  0
  1 39  1  0  0  0
 39 40  1  0  0  0
 40 41  2  0  0  0
 41 42  1  0  0  0
 42 43  1  0  0  0
 43 44  2  0  0  0
 44 45  1  0  0  0
 45 46  2  0  0  0
 46 47  1  0  0  0
 47 48  2  0  0  0
  1 16  1  0  0  0
 16 17  2  0  0  0
 16 18  1  0  0  0
 18 20  1  0  0  0
 20 32  1  0  0  0
 32 33  1  0  0  0
 33 34  1  0  0  0
 34 35  1  0  0  0
 35 36  1  0  0  0
 20 21  1  0  0  0
 21 22  2  0  0  0
 21 23  1  0  0  0
 23 25  1  0  0  0
 25 26  1  0  0  0
 26 27  2  0  0  0
 27 28  1  0  0  0
 28 29  2  0  0  0
 29 30  1  0  0  0
 30 31  2  0  0  0
 12  7  1  0  0  0
 48 40  1  0  0  0
 31 26  1  0  0  0
 14  9  1  0  0  0
 48 43  1  0  0  0
  6 15  1  0  0  0
  4  5  1  0  0  0
 42 49  1  0  0  0
 18 19  1  0  0  0
 36 37  1  0  0  0
 36 38  1  0  0  0
 23 24  1  0  0  0
M  END
> <minimizedAffinity>
19.11261

> <CNNscore>
0.3332013488

> <CNNaffinity>
7.8334007263

> <CNN_VS>
2.6100997925

> <CNNaffinity_variance>
0.8085716367

$$$$
[H]OC1(C(=O)N([H])[C@]([H])(C(=O)N([H])[C@]([H])(C(=O)N([H])C([H])([H])c2c([H])c([H])c([H])c([H])c2[H])C([H])([H])C([H])([H])C([H])([H])C([H])([H])N([H])[H])C([H])([H])c2c([H])n([H])c3c([H])c([H])c([H])c([H])c23)C([H])([H])N2C([H])([H])C([H])([H])C1([H])C([H])([H])C2([H])[H]


 49 53  0  0  0  0  0  0  0  0999 V2000
   12.0814   45.7932  132.0490 C   0  0  0  0  0  0  0  0  0  0  0  0
   10.5805   44.4963  130.5825 C   0  0  0  0  0  0  0  0  0  0  0  0
    9.6093   44.9549  131.2293 O   0  0  0  0  0  0  0  0  0  0  0  0
   11.8694   44.9054  130.9738 N   0  0  0  0  0  0  0  0  0  0  0  0
   12.6898   44.5393  130.4478 H   0  0  0  0  0  0  0  0  0  0  0  0
   10.7109   42.2861  129.9678 O   0  0  0  0  0  0  0  0  0  0  0  0
   10.3845   43.5722  129.4661 C   0  0  0  0  0  0  0  0  0  0  0  0
    8.9450   43.6118  129.0269 C   0  0  0  0  0  0  0  0  0  0  0  0
    8.9395   43.4911  127.5638 N   0  0  0  0  0  0  0  0  0  0  0  0
    9.7411   42.3644  127.2109 C   0  0  0  0  0  0  0  0  0  0  0  0
   11.2047   42.7532  127.2746 C   0  0  0  0  0  0  0  0  0  0  0  0
   11.2885   43.9041  128.3085 C   0  0  0  0  0  0  0  0  0  0  0  0
   10.7793   45.1047  127.5661 C   0  0  0  0  0  0  0  0  0  0  0  0
    9.3919   44.7526  127.0283 C   0  0  0  0  0  0  0  0  0  0  0  0
    9.8717   41.8920  130.3408 H   0  0  0  0  0  0  0  0  0  0  0  0
   10.9516   45.6366  133.0328 C   0  0  0  0  0  0  0  0  0  0  0  0
   10.6407   46.6397  133.7169 O   0  0  0  0  0  0  0  0  0  0  0  0
   10.2517   44.4315  133.2059 N   0  0  0  0  0  0  0  0  0  0  0  0
   10.5090   43.6064  132.6349 H   0  0  0  0  0  0  0  0  0  0  0  0
    9.1746   44.3119  134.1602 C   0  0  0  0  0  0  0  0  0  0  0  0
    8.0924   45.2700  133.7833 C   0  0  0  0  0  0  0  0  0  0  0  0
    7.5015   45.8923  134.6908 O   0  0  0  0  0  0  0  0  0  0  0  0
    7.7245   45.4882  132.4326 N   0  0  0  0  0  0  0  0  0  0  0  0
    8.2355   44.9501  131.6900 H   0  0  0  0  0  0  0  0  0  0  0  0
    6.6845   46.4188  132.1260 C   0  0  0  0  0  0  0  0  0  0  0  0
    6.5966   46.8095  130.7097 C   0  0  0  0  0  0  0  0  0  0  0  0
    7.3975   46.3672  129.6959 C   0  0  0  0  0  0  0  0  0  0  0  0
    7.2448   46.7875  128.3880 C   0  0  0  0  0  0  0  0  0  0  0  0
    6.2528   47.6877  128.0700 C   0  0  0  0  0  0  0  0  0  0  0  0
    5.4389   48.1451  129.0654 C   0  0  0  0  0  0  0  0  0  0  0  0
    5.6074   47.7125  130.3685 C   0  0  0  0  0  0  0  0  0  0  0  0
    9.6946   44.6096  135.5537 C   0  0  0  0  0  0  0  0  0  0  0  0
   10.9279   43.8048  135.8450 C   0  0  0  0  0  0  0  0  0  0  0  0
   12.1774   44.5863  135.5806 C   0  0  0  0  0  0  0  0  0  0  0  0
   13.0977   43.9211  134.5872 C   0  0  0  0  0  0  0  0  0  0  0  0
   12.3028   43.0571  133.7217 N   0  0  0  0  0  0  0  0  0  0  0  0
   12.1459   43.4857  132.7847 H   0  0  0  0  0  0  0  0  0  0  0  0
   11.4364   42.8118  134.2297 H   0  0  0  0  0  0  0  0  0  0  0  0
   12.2269   47.2452  131.7151 C   0  0  0  0  0  0  0  0  0  0  0  0
   11.1504   47.8367  130.9254 C   0  0  0  0  0  0  0  0  0  0  0  0
   10.8142   47.4555  129.6313 C   0  0  0  0  0  0  0  0  0  0  0  0
    9.7573   48.1814  129.2146 N   0  0  0  0  0  0  0  0  0  0  0  0
    9.3830   49.0286  130.1847 C   0  0  0  0  0  0  0  0  0  0  0  0
    8.3802   49.9665  130.2381 C   0  0  0  0  0  0  0  0  0  0  0  0
    8.2408   50.7120  131.3860 C   0  0  0  0  0  0  0  0  0  0  0  0
    9.0798   50.5310  132.4605 C   0  0  0  0  0  0  0  0  0  0  0  0
   10.0771   49.5878  132.3898 C   0  0  0  0  0  0  0  0  0  0  0  0
   10.2516   48.8189  131.2599 C   0  0  0  0  0  0  0  0  0  0  0  0
    9.2822   48.1153  128.2842 H   0  0  0  0  0  0  0  0  0  0  0  0
  6  7  1  0  0  0
  7  8  1  0  0  0
  8  9  1  0  0  0
  9 10  1  0  0  0
 10 11  1  0  0  0
 11 12  1  0  0  0
 12 13  1  0  0  0
 13 14  1  0  0  0
  7  2  1  0  0  0
  2  3  2  0  0  0
  2  4  1  0  0  0
  4  1  1  0  0  0
  1 39  1  0  0  0
 39 40  1  0  0  0
 40 41  2  0  0  0
 41 42  1  0  0  0
 42 43  1  0  0  0
 43 44  2  0  0  0
 44 45  1  0  0  0
 45 46  2  0  0  0
 46 47  1  0  0  0
 47 48  2  0  0  0
  1 16  1  0  0  0
 16 17  2  0  0  0
 16 18  1  0  0  0
 18 20  1  0  0  0
 20 32  1  0  0  0
 32 33  1  0  0  0
 33 34  1  0  0  0
 34 35  1  0  0  0
 35 36  1  0  0  0
 20 21  1  0  0  0
 21 22  2  0  0  0
 21 23  1  0  0  0
 23 25  1  0  0  0
 25 26  1  0  0  0
 26 27  2  0  0  0
 27 28  1  0  0  0
 28 29  2  0  0  0
 29 30  1  0  0  0
 30 31  2  0  0  0
 12  7  1  0  0  0
 48 40  1  0  0  0
 31 26  1  0  0  0
 14  9  1  0  0  0
 48 43  1  0  0  0
  6 15  1  0  0  0
  4  5  1  0  0  0
 42 49  1  0  0  0
 18 19  1  0  0  0
 36 37  1  0  0  0
 36 38  1  0  0  0
 23 24  1  0  0  0
M  END
> <minimizedAffinity>
11.52046

> <CNNscore>
0.3078758121

> <CNNaffinity>
7.6635742188

> <CNN_VS>
2.3594291210

> <CNNaffinity_variance>
0.3973404765

$$$$
[H]OC1(C(=O)N([H])[C@]([H])(C(=O)N([H])[C@]([H])(C(=O)N([H])C([H])([H])c2c([H])c([H])c([H])c([H])c2[H])C([H])([H])C([H])([H])C([H])([H])C([H])([H])N([H])[H])C([H])([H])c2c([H])n([H])c3c([H])c([H])c([H])c([H])c23)C([H])([H])N2C([H])([H])C([H])([H])C1([H])C([H])([H])C2([H])[H]


 49 53  0  0  0  0  0  0  0  0999 V2000
    7.6393   44.9407  129.7116 C   0  0  0  0  0  0  0  0  0  0  0  0
    6.5742   47.1282  129.3046 C   0  0  0  0  0  0  0  0  0  0  0  0
    5.4805   46.6203  129.6479 O   0  0  0  0  0  0  0  0  0  0  0  0
    7.7090   46.2954  129.3254 N   0  0  0  0  0  0  0  0  0  0  0  0
    8.6280   46.6979  129.0474 H   0  0  0  0  0  0  0  0  0  0  0  0
    7.1481   48.5119  127.5623 O   0  0  0  0  0  0  0  0  0  0  0  0
    6.6693   48.5296  128.8976 C   0  0  0  0  0  0  0  0  0  0  0  0
    5.3052   49.1640  128.9551 C   0  0  0  0  0  0  0  0  0  0  0  0
    5.4911   50.5377  129.4386 N   0  0  0  0  0  0  0  0  0  0  0  0
    6.5077   51.1505  128.6463 C   0  0  0  0  0  0  0  0  0  0  0  0
    7.8667   50.6877  129.1324 C   0  0  0  0  0  0  0  0  0  0  0  0
    7.6329   49.2935  129.7666 C   0  0  0  0  0  0  0  0  0  0  0  0
    7.0179   49.5941  131.1020 C   0  0  0  0  0  0  0  0  0  0  0  0
    5.7826   50.4593  130.8498 C   0  0  0  0  0  0  0  0  0  0  0  0
    6.3500   48.4719  126.9622 H   0  0  0  0  0  0  0  0  0  0  0  0
    7.7895   44.8581  131.2080 C   0  0  0  0  0  0  0  0  0  0  0  0
    7.5658   45.9002  131.8674 O   0  0  0  0  0  0  0  0  0  0  0  0
    8.1643   43.6798  131.8737 N   0  0  0  0  0  0  0  0  0  0  0  0
    8.3435   42.8196  131.3250 H   0  0  0  0  0  0  0  0  0  0  0  0
    8.3031   43.6333  133.3102 C   0  0  0  0  0  0  0  0  0  0  0  0
    8.9863   44.8811  133.7658 C   0  0  0  0  0  0  0  0  0  0  0  0
    8.3221   45.7310  134.3955 O   0  0  0  0  0  0  0  0  0  0  0  0
   10.3579   45.1205  133.5034 N   0  0  0  0  0  0  0  0  0  0  0  0
   10.8918   44.3909  132.9699 H   0  0  0  0  0  0  0  0  0  0  0  0
   10.9640   46.3294  133.9648 C   0  0  0  0  0  0  0  0  0  0  0  0
   10.6712   47.5216  133.1528 C   0  0  0  0  0  0  0  0  0  0  0  0
   10.3119   48.7528  133.6214 C   0  0  0  0  0  0  0  0  0  0  0  0
   10.0541   49.8225  132.7849 C   0  0  0  0  0  0  0  0  0  0  0  0
   10.1573   49.6649  131.4210 C   0  0  0  0  0  0  0  0  0  0  0  0
   10.5149   48.4439  130.9274 C   0  0  0  0  0  0  0  0  0  0  0  0
   10.7688   47.3853  131.7809 C   0  0  0  0  0  0  0  0  0  0  0  0
    9.1046   42.4072  133.7042 C   0  0  0  0  0  0  0  0  0  0  0  0
    8.1958   41.2934  134.1367 C   0  0  0  0  0  0  0  0  0  0  0  0
    6.8780   41.3437  133.4278 C   0  0  0  0  0  0  0  0  0  0  0  0
    5.6958   41.2228  134.3574 C   0  0  0  0  0  0  0  0  0  0  0  0
    5.8313   39.9904  135.1257 N   0  0  0  0  0  0  0  0  0  0  0  0
    6.1542   40.1742  136.0994 H   0  0  0  0  0  0  0  0  0  0  0  0
    6.4379   39.3482  134.5885 H   0  0  0  0  0  0  0  0  0  0  0  0
    8.6189   44.0010  129.0801 C   0  0  0  0  0  0  0  0  0  0  0  0
   10.0226   44.3995  129.1351 C   0  0  0  0  0  0  0  0  0  0  0  0
   10.6218   45.3147  128.2770 C   0  0  0  0  0  0  0  0  0  0  0  0
   11.9141   45.4723  128.6275 N   0  0  0  0  0  0  0  0  0  0  0  0
   12.1915   44.6950  129.6846 C   0  0  0  0  0  0  0  0  0  0  0  0
   13.3530   44.5007  130.3926 C   0  0  0  0  0  0  0  0  0  0  0  0
   13.3387   43.6135  131.4441 C   0  0  0  0  0  0  0  0  0  0  0  0
   12.1945   42.9318  131.7870 C   0  0  0  0  0  0  0  0  0  0  0  0
   11.0415   43.1391  131.0681 C   0  0  0  0  0  0  0  0  0  0  0  0
   11.0113   44.0191  130.0084 C   0  0  0  0  0  0  0  0  0  0  0  0
   12.6148   46.0973  128.1647 H   0  0  0  0  0  0  0  0  0  0  0  0
  6  7  1  0  0  0
  7  8  1  0  0  0
  8  9  1  0  0  0
  9 10  1  0  0  0
 10 11  1  0  0  0
 11 12  1  0  0  0
 12 13  1  0  0  0
 13 14  1  0  0  0
  7  2  1  0  0  0
  2  3  2  0  0  0
  2  4  1  0  0  0
  4  1  1  0  0  0
  1 39  1  0  0  0
 39 40  1  0  0  0
 40 41  2  0  0  0
 41 42  1  0  0  0
 42 43  1  0  0  0
 43 44  2  0  0  0
 44 45  1  0  0  0
 45 46  2  0  0  0
 46 47  1  0  0  0
 47 48  2  0  0  0
  1 16  1  0  0  0
 16 17  2  0  0  0
 16 18  1  0  0  0
 18 20  1  0  0  0
 20 32  1  0  0  0
 32 33  1  0  0  0
 33 34  1  0  0  0
 34 35  1  0  0  0
 35 36  1  0  0  0
 20 21  1  0  0  0
 21 22  2  0  0  0
 21 23  1  0  0  0
 23 25  1  0  0  0
 25 26  1  0  0  0
 26 27  2  0  0  0
 27 28  1  0  0  0
 28 29  2  0  0  0
 29 30  1  0  0  0
 30 31  2  0  0  0
 12  7  1  0  0  0
 48 40  1  0  0  0
 31 26  1  0  0  0
 14  9  1  0  0  0
 48 43  1  0  0  0
  6 15  1  0  0  0
  4  5  1  0  0  0
 42 49  1  0  0  0
 18 19  1  0  0  0
 36 37  1  0  0  0
 36 38  1  0  0  0
 23 24  1  0  0  0
M  END
> <minimizedAffinity>
3.34021

> <CNNscore>
0.2997887433

> <CNNaffinity>
7.7891817093

> <CNN_VS>
2.3351089954

> <CNNaffinity_variance>
0.1798346192

$$$$
[H]OC1(C(=O)N([H])[C@]([H])(C(=O)N([H])[C@]([H])(C(=O)N([H])C([H])([H])c2c([H])c([H])c([H])c([H])c2[H])C([H])([H])C([H])([H])C([H])([H])C([H])([H])N([H])[H])C([H])([H])c2c([H])n([H])c3c([H])c([H])c([H])c([H])c23)C([H])([H])N2C([H])([H])C([H])([H])C1([H])C([H])([H])C2([H])[H]


 49 53  0  0  0  0  0  0  0  0999 V2000
    9.1642   47.3767  133.6103 C   0  0  0  0  0  0  0  0  0  0  0  0
    8.8872   49.2573  132.0379 C   0  0  0  0  0  0  0  0  0  0  0  0
    9.7933   49.8631  132.6575 O   0  0  0  0  0  0  0  0  0  0  0  0
    8.5358   47.9739  132.4977 N   0  0  0  0  0  0  0  0  0  0  0  0
    7.7882   47.4518  131.9955 H   0  0  0  0  0  0  0  0  0  0  0  0
    8.3056   51.2612  131.0759 O   0  0  0  0  0  0  0  0  0  0  0  0
    8.2198   49.8583  130.8839 C   0  0  0  0  0  0  0  0  0  0  0  0
    8.9385   49.4587  129.6227 C   0  0  0  0  0  0  0  0  0  0  0  0
    7.9132   49.2484  128.5932 N   0  0  0  0  0  0  0  0  0  0  0  0
    7.0653   50.3961  128.5738 C   0  0  0  0  0  0  0  0  0  0  0  0
    6.0774   50.3066  129.7197 C   0  0  0  0  0  0  0  0  0  0  0  0
    6.7727   49.4494  130.8071 C   0  0  0  0  0  0  0  0  0  0  0  0
    6.6461   48.0414  130.3037 C   0  0  0  0  0  0  0  0  0  0  0  0
    7.2483   48.0046  128.8986 C   0  0  0  0  0  0  0  0  0  0  0  0
    9.1549   51.5673  130.6471 H   0  0  0  0  0  0  0  0  0  0  0  0
   10.5553   46.9592  133.2111 C   0  0  0  0  0  0  0  0  0  0  0  0
   10.9021   47.1715  132.0255 O   0  0  0  0  0  0  0  0  0  0  0  0
   11.4556   46.3530  134.1021 N   0  0  0  0  0  0  0  0  0  0  0  0
   11.1662   46.1839  135.0823 H   0  0  0  0  0  0  0  0  0  0  0  0
   12.7822   45.9609  133.6881 C   0  0  0  0  0  0  0  0  0  0  0  0
   12.6634   44.9053  132.6378 C   0  0  0  0  0  0  0  0  0  0  0  0
   12.3248   43.7536  132.9828 O   0  0  0  0  0  0  0  0  0  0  0  0
   12.9228   45.1777  131.2719 N   0  0  0  0  0  0  0  0  0  0  0  0
   13.2083   46.1534  131.0099 H   0  0  0  0  0  0  0  0  0  0  0  0
   12.7910   44.1325  130.3066 C   0  0  0  0  0  0  0  0  0  0  0  0
   11.8007   44.3849  129.2473 C   0  0  0  0  0  0  0  0  0  0  0  0
   11.2877   43.4622  128.3811 C   0  0  0  0  0  0  0  0  0  0  0  0
   10.3569   43.7865  127.4121 C   0  0  0  0  0  0  0  0  0  0  0  0
    9.9141   45.0848  127.2960 C   0  0  0  0  0  0  0  0  0  0  0  0
   10.4115   46.0261  128.1499 C   0  0  0  0  0  0  0  0  0  0  0  0
   11.3425   45.6820  129.1134 C   0  0  0  0  0  0  0  0  0  0  0  0
   13.5563   45.4431  134.8853 C   0  0  0  0  0  0  0  0  0  0  0  0
   14.4936   46.4928  135.4079 C   0  0  0  0  0  0  0  0  0  0  0  0
   13.8042   47.8079  135.6007 C   0  0  0  0  0  0  0  0  0  0  0  0
   14.3481   48.6015  136.7629 C   0  0  0  0  0  0  0  0  0  0  0  0
   15.5067   47.9002  137.3044 N   0  0  0  0  0  0  0  0  0  0  0  0
   16.4018   48.3469  137.0118 H   0  0  0  0  0  0  0  0  0  0  0  0
   15.4222   46.9030  137.0449 H   0  0  0  0  0  0  0  0  0  0  0  0
    8.4737   46.2043  134.2346 C   0  0  0  0  0  0  0  0  0  0  0  0
    8.7847   44.8952  133.6672 C   0  0  0  0  0  0  0  0  0  0  0  0
    9.3310   43.8322  134.3775 C   0  0  0  0  0  0  0  0  0  0  0  0
    9.4581   42.7689  133.5584 N   0  0  0  0  0  0  0  0  0  0  0  0
    9.0167   43.0897  132.3332 C   0  0  0  0  0  0  0  0  0  0  0  0
    8.9481   42.3614  131.1701 C   0  0  0  0  0  0  0  0  0  0  0  0
    8.4489   42.9723  130.0430 C   0  0  0  0  0  0  0  0  0  0  0  0
    8.0257   44.2806  130.0686 C   0  0  0  0  0  0  0  0  0  0  0  0
    8.1010   44.9940  131.2411 C   0  0  0  0  0  0  0  0  0  0  0  0
    8.5935   44.4208  132.3932 C   0  0  0  0  0  0  0  0  0  0  0  0
    9.8384   41.8272  133.8120 H   0  0  0  0  0  0  0  0  0  0  0  0
  6  7  1  0  0  0
  7  8  1  0  0  0
  8  9  1  0  0  0
  9 10  1  0  0  0
 10 11  1  0  0  0
 11 12  1  0  0  0
 12 13  1  0  0  0
 13 14  1  0  0  0
  7  2  1  0  0  0
  2  3  2  0  0  0
  2  4  1  0  0  0
  4  1  1  0  0  0
  1 39  1  0  0  0
 39 40  1  0  0  0
 40 41  2  0  0  0
 41 42  1  0  0  0
 42 43  1  0  0  0
 43 44  2  0  0  0
 44 45  1  0  0  0
 45 46  2  0  0  0
 46 47  1  0  0  0
 47 48  2  0  0  0
  1 16  1  0  0  0
 16 17  2  0  0  0
 16 18  1  0  0  0
 18 20  1  0  0  0
 20 32  1  0  0  0
 32 33  1  0  0  0
 33 34  1  0  0  0
 34 35  1  0  0  0
 35 36  1  0  0  0
 20 21  1  0  0  0
 21 22  2  0  0  0
 21 23  1  0  0  0
 23 25  1  0  0  0
 25 26  1  0  0  0
 26 27  2  0  0  0
 27 28  1  0  0  0
 28 29  2  0  0  0
 29 30  1  0  0  0
 30 31  2  0  0  0
 12  7  1  0  0  0
 48 40  1  0  0  0
 31 26  1  0  0  0
 14  9  1  0  0  0
 48 43  1  0  0  0
  6 15  1  0  0  0
  4  5  1  0  0  0
 42 49  1  0  0  0
 18 19  1  0  0  0
 36 37  1  0  0  0
 36 38  1  0  0  0
 23 24  1  0  0  0
M  END
> <minimizedAffinity>
3.51411

> <CNNscore>
0.2888290882

> <CNNaffinity>
7.8890776634

> <CNN_VS>
2.2785952091

> <CNNaffinity_variance>
0.1748710871

$$$$
[H]OC1(C(=O)N([H])[C@]([H])(C(=O)N([H])[C@]([H])(C(=O)N([H])C([H])([H])c2c([H])c([H])c([H])c([H])c2[H])C([H])([H])C([H])([H])C([H])([H])C([H])([H])N([H])[H])C([H])([H])c2c([H])n([H])c3c([H])c([H])c([H])c([H])c23)C([H])([H])N2C([H])([H])C([H])([H])C1([H])C([H])([H])C2([H])[H]


 49 53  0  0  0  0  0  0  0  0999 V2000
   10.6267   47.5465  129.3401 C   0  0  0  0  0  0  0  0  0  0  0  0
   10.0839   47.4835  131.7457 C   0  0  0  0  0  0  0  0  0  0  0  0
    9.1423   46.7004  131.4770 O   0  0  0  0  0  0  0  0  0  0  0  0
   10.8717   47.9402  130.6721 N   0  0  0  0  0  0  0  0  0  0  0  0
   11.6611   48.5884  130.8734 H   0  0  0  0  0  0  0  0  0  0  0  0
   10.6415   49.2947  133.0450 O   0  0  0  0  0  0  0  0  0  0  0  0
   10.3544   47.9075  133.1189 C   0  0  0  0  0  0  0  0  0  0  0  0
    9.1339   47.6711  133.9681 C   0  0  0  0  0  0  0  0  0  0  0  0
    9.6070   47.2247  135.2842 N   0  0  0  0  0  0  0  0  0  0  0  0
   10.5963   48.1495  135.7345 C   0  0  0  0  0  0  0  0  0  0  0  0
   11.9125   47.8474  135.0463 C   0  0  0  0  0  0  0  0  0  0  0  0
   11.5380   47.1798  133.6992 C   0  0  0  0  0  0  0  0  0  0  0  0
   11.1646   45.7757  134.0746 C   0  0  0  0  0  0  0  0  0  0  0  0
   10.0669   45.8649  135.1355 C   0  0  0  0  0  0  0  0  0  0  0  0
    9.7751   49.7822  133.1468 H   0  0  0  0  0  0  0  0  0  0  0  0
    9.1389   47.4237  129.1401 C   0  0  0  0  0  0  0  0  0  0  0  0
    8.7397   46.6113  128.2731 O   0  0  0  0  0  0  0  0  0  0  0  0
    8.2055   48.1727  129.8749 N   0  0  0  0  0  0  0  0  0  0  0  0
    8.5399   48.8394  130.5937 H   0  0  0  0  0  0  0  0  0  0  0  0
    6.7847   48.0348  129.6574 C   0  0  0  0  0  0  0  0  0  0  0  0
    6.4106   46.5993  129.8332 C   0  0  0  0  0  0  0  0  0  0  0  0
    5.2500   46.2433  129.5394 O   0  0  0  0  0  0  0  0  0  0  0  0
    7.3333   45.6408  130.3203 N   0  0  0  0  0  0  0  0  0  0  0  0
    8.3011   45.9677  130.5623 H   0  0  0  0  0  0  0  0  0  0  0  0
    6.9252   44.2793  130.4664 C   0  0  0  0  0  0  0  0  0  0  0  0
    7.4991   43.5787  131.6266 C   0  0  0  0  0  0  0  0  0  0  0  0
    7.2365   42.2943  132.0089 C   0  0  0  0  0  0  0  0  0  0  0  0
    7.8223   41.7120  133.1171 C   0  0  0  0  0  0  0  0  0  0  0  0
    8.7093   42.4357  133.8818 C   0  0  0  0  0  0  0  0  0  0  0  0
    8.9888   43.7218  133.5208 C   0  0  0  0  0  0  0  0  0  0  0  0
    8.3923   44.2871  132.4081 C   0  0  0  0  0  0  0  0  0  0  0  0
    6.4350   48.5142  128.2615 C   0  0  0  0  0  0  0  0  0  0  0  0
    6.0112   49.9542  128.2836 C   0  0  0  0  0  0  0  0  0  0  0  0
    6.9593   50.8009  129.0749 C   0  0  0  0  0  0  0  0  0  0  0  0
    6.9635   50.4742  130.5478 C   0  0  0  0  0  0  0  0  0  0  0  0
    8.2636   50.8357  131.1015 N   0  0  0  0  0  0  0  0  0  0  0  0
    8.2213   51.7272  131.6397 H   0  0  0  0  0  0  0  0  0  0  0  0
    8.9479   50.8367  130.3266 H   0  0  0  0  0  0  0  0  0  0  0  0
   11.2781   46.2823  128.8727 C   0  0  0  0  0  0  0  0  0  0  0  0
   11.7088   45.3548  129.9150 C   0  0  0  0  0  0  0  0  0  0  0  0
   12.6787   45.6315  130.8719 C   0  0  0  0  0  0  0  0  0  0  0  0
   12.8058   44.5716  131.6954 N   0  0  0  0  0  0  0  0  0  0  0  0
   11.9566   43.6045  131.3181 C   0  0  0  0  0  0  0  0  0  0  0  0
   11.7205   42.3500  131.8266 C   0  0  0  0  0  0  0  0  0  0  0  0
   10.7778   41.5599  131.2103 C   0  0  0  0  0  0  0  0  0  0  0  0
   10.0824   42.0051  130.1105 C   0  0  0  0  0  0  0  0  0  0  0  0
   10.3310   43.2631  129.6156 C   0  0  0  0  0  0  0  0  0  0  0  0
   11.2658   44.0875  130.2026 C   0  0  0  0  0  0  0  0  0  0  0  0
   13.4574   44.4887  132.5104 H   0  0  0  0  0  0  0  0  0  0  0  0
  6  7  1  0  0  0
  7  8  1  0  0  0
  8  9  1  0  0  0
  9 10  1  0  0  0
 10 11  1  0  0  0
 11 12  1  0  0  0
 12 13  1  0  0  0
 13 14  1  0  0  0
  7  2  1  0  0  0
  2  3  2  0  0  0
  2  4  1  0  0  0
  4  1  1  0  0  0
  1 39  1  0  0  0
 39 40  1  0  0  0
 40 41  2  0  0  0
 41 42  1  0  0  0
 42 43  1  0  0  0
 43 44  2  0  0  0
 44 45  1  0  0  0
 45 46  2  0  0  0
 46 47  1  0  0  0
 47 48  2  0  0  0
  1 16  1  0  0  0
 16 17  2  0  0  0
 16 18  1  0  0  0
 18 20  1  0  0  0
 20 32  1  0  0  0
 32 33  1  0  0  0
 33 34  1  0  0  0
 34 35  1  0  0  0
 35 36  1  0  0  0
 20 21  1  0  0  0
 21 22  2  0  0  0
 21 23  1  0  0  0
 23 25  1  0  0  0
 25 26  1  0  0  0
 26 27  2  0  0  0
 27 28  1  0  0  0
 28 29  2  0  0  0
 29 30  1  0  0  0
 30 31  2  0  0  0
 12  7  1  0  0  0
 48 40  1  0  0  0
 31 26  1  0  0  0
 14  9  1  0  0  0
 48 43  1  0  0  0
  6 15  1  0  0  0
  4  5  1  0  0  0
 42 49  1  0  0  0
 18 19  1  0  0  0
 36 37  1  0  0  0
 36 38  1  0  0  0
 23 24  1  0  0  0
M  END
> <minimizedAffinity>
10.04773

> <CNNscore>
0.2873171270

> <CNNaffinity>
7.8436799049

> <CNN_VS>
2.2536234856

> <CNNaffinity_variance>
0.7507985830

$$$$
[H]OC1(C(=O)N([H])[C@]([H])(C(=O)N([H])[C@]([H])(C(=O)N([H])C([H])([H])c2c([H])c([H])c([H])c([H])c2[H])C([H])([H])C([H])([H])C([H])([H])C([H])([H])N([H])[H])C([H])([H])c2c([H])n([H])c3c([H])c([H])c([H])c([H])c23)C([H])([H])N2C([H])([H])C([H])([H])C1([H])C([H])([H])C2([H])[H]


 49 53  0  0  0  0  0  0  0  0999 V2000
    9.7021   44.9410  128.3050 C   0  0  0  0  0  0  0  0  0  0  0  0
    9.3066   47.3246  128.8023 C   0  0  0  0  0  0  0  0  0  0  0  0
   10.4985   47.5522  128.4868 O   0  0  0  0  0  0  0  0  0  0  0  0
    8.8589   45.9924  128.7206 N   0  0  0  0  0  0  0  0  0  0  0  0
    7.8715   45.7818  128.9746 H   0  0  0  0  0  0  0  0  0  0  0  0
    9.2496   49.5227  129.4690 O   0  0  0  0  0  0  0  0  0  0  0  0
    8.4154   48.3987  129.2389 C   0  0  0  0  0  0  0  0  0  0  0  0
    7.4203   48.7007  128.1502 C   0  0  0  0  0  0  0  0  0  0  0  0
    6.1420   48.9981  128.8079 N   0  0  0  0  0  0  0  0  0  0  0  0
    6.3827   49.9771  129.8179 C   0  0  0  0  0  0  0  0  0  0  0  0
    6.9699   49.2999  131.0402 C   0  0  0  0  0  0  0  0  0  0  0  0
    7.6966   48.0376  130.5118 C   0  0  0  0  0  0  0  0  0  0  0  0
    6.5897   47.0626  130.2368 C   0  0  0  0  0  0  0  0  0  0  0  0
    5.6057   47.7471  129.2873 C   0  0  0  0  0  0  0  0  0  0  0  0
    9.3104   50.0274  128.6085 H   0  0  0  0  0  0  0  0  0  0  0  0
    9.4699   43.7539  129.2027 C   0  0  0  0  0  0  0  0  0  0  0  0
    8.8169   42.7940  128.7304 O   0  0  0  0  0  0  0  0  0  0  0  0
    9.9487   43.6888  130.5212 N   0  0  0  0  0  0  0  0  0  0  0  0
   10.4920   44.4825  130.9057 H   0  0  0  0  0  0  0  0  0  0  0  0
    9.7066   42.5375  131.3585 C   0  0  0  0  0  0  0  0  0  0  0  0
    9.0366   42.9912  132.6142 C   0  0  0  0  0  0  0  0  0  0  0  0
    9.1868   42.3118  133.6515 O   0  0  0  0  0  0  0  0  0  0  0  0
    8.2428   44.1640  132.6560 N   0  0  0  0  0  0  0  0  0  0  0  0
    8.1310   44.7147  131.7692 H   0  0  0  0  0  0  0  0  0  0  0  0
    7.6267   44.5556  133.8842 C   0  0  0  0  0  0  0  0  0  0  0  0
    8.2712   45.6869  134.5707 C   0  0  0  0  0  0  0  0  0  0  0  0
    7.9806   47.0102  134.4001 C   0  0  0  0  0  0  0  0  0  0  0  0
    8.6377   48.0124  135.0888 C   0  0  0  0  0  0  0  0  0  0  0  0
    9.6285   47.6883  135.9881 C   0  0  0  0  0  0  0  0  0  0  0  0
    9.9379   46.3726  136.1768 C   0  0  0  0  0  0  0  0  0  0  0  0
    9.2688   45.3839  135.4780 C   0  0  0  0  0  0  0  0  0  0  0  0
   11.0220   41.8494  131.6696 C   0  0  0  0  0  0  0  0  0  0  0  0
   10.9711   40.4012  131.2776 C   0  0  0  0  0  0  0  0  0  0  0  0
    9.7748   40.0960  130.4305 C   0  0  0  0  0  0  0  0  0  0  0  0
   10.0949   39.2317  129.2359 C   0  0  0  0  0  0  0  0  0  0  0  0
   10.0739   40.0649  128.0389 N   0  0  0  0  0  0  0  0  0  0  0  0
   11.0357   40.2953  127.7102 H   0  0  0  0  0  0  0  0  0  0  0  0
    9.4815   40.8886  128.2376 H   0  0  0  0  0  0  0  0  0  0  0  0
   11.1713   45.2242  128.2572 C   0  0  0  0  0  0  0  0  0  0  0  0
   11.9229   44.9415  129.4768 C   0  0  0  0  0  0  0  0  0  0  0  0
   12.9997   44.0661  129.5602 C   0  0  0  0  0  0  0  0  0  0  0  0
   13.4771   44.0677  130.8211 N   0  0  0  0  0  0  0  0  0  0  0  0
   12.7557   44.9110  131.5741 C   0  0  0  0  0  0  0  0  0  0  0  0
   12.8441   45.2485  132.9032 C   0  0  0  0  0  0  0  0  0  0  0  0
   11.9401   46.1528  133.4111 C   0  0  0  0  0  0  0  0  0  0  0  0
   10.9669   46.7118  132.6162 C   0  0  0  0  0  0  0  0  0  0  0  0
   10.8937   46.3631  131.2887 C   0  0  0  0  0  0  0  0  0  0  0  0
   11.7794   45.4622  130.7390 C   0  0  0  0  0  0  0  0  0  0  0  0
   14.2840   43.5082  131.1839 H   0  0  0  0  0  0  0  0  0  0  0  0
  6  7  1  0  0  0
  7  8  1  0  0  0
  8  9  1  0  0  0
  9 10  1  0  0  0
 10 11  1  0  0  0
 11 12  1  0  0  0
 12 13  1  0  0  0
 13 14  1  0  0  0
  7  2  1  0  0  0
  2  3  2  0  0  0
  2  4  1  0  0  0
  4  1  1  0  0  0
  1 39  1  0  0  0
 39 40  1  0  0  0
 40 41  2  0  0  0
 41 42  1  0  0  0
 42 43  1  0  0  0
 43 44  2  0  0  0
 44 45  1  0  0  0
 45 46  2  0  0  0
 46 47  1  0  0  0
 47 48  2  0  0  0
  1 16  1  0  0  0
 16 17  2  0  0  0
 16 18  1  0  0  0
 18 20  1  0  0  0
 20 32  1  0  0  0
 32 33  1  0  0  0
 33 34  1  0  0  0
 34 35  1  0  0  0
 35 36  1  0  0  0
 20 21  1  0  0  0
 21 22  2  0  0  0
 21 23  1  0  0  0
 23 25  1  0  0  0
 25 26  1  0  0  0
 26 27  2  0  0  0
 27 28  1  0  0  0
 28 29  2  0  0  0
 29 30  1  0  0  0
 30 31  2  0  0  0
 12  7  1  0  0  0
 48 40  1  0  0  0
 31 26  1  0  0  0
 14  9  1  0  0  0
 48 43  1  0  0  0
  6 15  1  0  0  0
  4  5  1  0  0  0
 42 49  1  0  0  0
 18 19  1  0  0  0
 36 37  1  0  0  0
 36 38  1  0  0  0
 23 24  1  0  0  0
M  END
> <minimizedAffinity>
9.85512

> <CNNscore>
0.2722416520

> <CNNaffinity>
7.8023872375

> <CNN_VS>
2.1241347790

> <CNNaffinity_variance>
0.5458661318

$$$$
[H]OC1(C(=O)N([H])[C@]([H])(C(=O)N([H])[C@]([H])(C(=O)N([H])C([H])([H])c2c([H])c([H])c([H])c([H])c2[H])C([H])([H])C([H])([H])C([H])([H])C([H])([H])N([H])[H])C([H])([H])c2c([H])n([H])c3c([H])c([H])c([H])c([H])c23)C([H])([H])N2C([H])([H])C([H])([H])C1([H])C([H])([H])C2([H])[H]


 49 53  0  0  0  0  0  0  0  0999 V2000
    8.7654   47.4476  130.1879 C   0  0  0  0  0  0  0  0  0  0  0  0
    9.3834   46.8754  132.5066 C   0  0  0  0  0  0  0  0  0  0  0  0
    9.9181   45.8292  132.0688 O   0  0  0  0  0  0  0  0  0  0  0  0
    8.7805   47.7348  131.5687 N   0  0  0  0  0  0  0  0  0  0  0  0
    8.3337   48.6109  131.9104 H   0  0  0  0  0  0  0  0  0  0  0  0
   10.6343   47.8115  134.1914 O   0  0  0  0  0  0  0  0  0  0  0  0
    9.3843   47.1919  133.9343 C   0  0  0  0  0  0  0  0  0  0  0  0
    8.2574   48.1424  134.2397 C   0  0  0  0  0  0  0  0  0  0  0  0
    7.7144   47.7575  135.5482 N   0  0  0  0  0  0  0  0  0  0  0  0
    8.8032   47.6558  136.4652 C   0  0  0  0  0  0  0  0  0  0  0  0
    9.5104   46.3317  136.2560 C   0  0  0  0  0  0  0  0  0  0  0  0
    9.2568   45.9499  134.7760 C   0  0  0  0  0  0  0  0  0  0  0  0
    7.8443   45.4436  134.7625 C   0  0  0  0  0  0  0  0  0  0  0  0
    6.9618   46.5409  135.3586 C   0  0  0  0  0  0  0  0  0  0  0  0
   10.5121   48.7936  134.0524 H   0  0  0  0  0  0  0  0  0  0  0  0
    8.2349   46.0516  129.9921 C   0  0  0  0  0  0  0  0  0  0  0  0
    7.0980   45.7977  130.4546 O   0  0  0  0  0  0  0  0  0  0  0  0
    8.9554   45.0478  129.3248 N   0  0  0  0  0  0  0  0  0  0  0  0
    9.8927   45.2636  128.9401 H   0  0  0  0  0  0  0  0  0  0  0  0
    8.4207   43.7171  129.1560 C   0  0  0  0  0  0  0  0  0  0  0  0
    8.7622   42.9071  130.3637 C   0  0  0  0  0  0  0  0  0  0  0  0
    7.8316   42.4409  131.0541 O   0  0  0  0  0  0  0  0  0  0  0  0
   10.1049   42.6568  130.7404 N   0  0  0  0  0  0  0  0  0  0  0  0
   10.8675   43.0627  130.1440 H   0  0  0  0  0  0  0  0  0  0  0  0
   10.3768   41.8723  131.9032 C   0  0  0  0  0  0  0  0  0  0  0  0
   10.9642   42.6139  133.0309 C   0  0  0  0  0  0  0  0  0  0  0  0
   10.4021   42.7950  134.2621 C   0  0  0  0  0  0  0  0  0  0  0  0
   11.0258   43.5085  135.2684 C   0  0  0  0  0  0  0  0  0  0  0  0
   12.2634   44.0684  135.0442 C   0  0  0  0  0  0  0  0  0  0  0  0
   12.8466   43.9017  133.8217 C   0  0  0  0  0  0  0  0  0  0  0  0
   12.2066   43.1842  132.8272 C   0  0  0  0  0  0  0  0  0  0  0  0
    9.0049   43.0893  127.9049 C   0  0  0  0  0  0  0  0  0  0  0  0
    8.7951   43.9796  126.7146 C   0  0  0  0  0  0  0  0  0  0  0  0
    9.8794   45.0044  126.5883 C   0  0  0  0  0  0  0  0  0  0  0  0
   10.1698   45.3922  125.1595 C   0  0  0  0  0  0  0  0  0  0  0  0
   10.1759   46.8477  125.0638 N   0  0  0  0  0  0  0  0  0  0  0  0
   11.1447   47.2287  125.0134 H   0  0  0  0  0  0  0  0  0  0  0  0
    9.6115   47.2182  125.8467 H   0  0  0  0  0  0  0  0  0  0  0  0
   10.0628   47.5738  129.4517 C   0  0  0  0  0  0  0  0  0  0  0  0
   11.2080   46.8846  130.0397 C   0  0  0  0  0  0  0  0  0  0  0  0
   11.7673   47.1877  131.2759 C   0  0  0  0  0  0  0  0  0  0  0  0
   12.7853   46.3391  131.5233 N   0  0  0  0  0  0  0  0  0  0  0  0
   12.9200   45.4869  130.4965 C   0  0  0  0  0  0  0  0  0  0  0  0
   13.8047   44.4588  130.2760 C   0  0  0  0  0  0  0  0  0  0  0  0
   13.7072   43.7515  129.0999 C   0  0  0  0  0  0  0  0  0  0  0  0
   12.7509   44.0578  128.1603 C   0  0  0  0  0  0  0  0  0  0  0  0
   11.8738   45.0891  128.3978 C   0  0  0  0  0  0  0  0  0  0  0  0
   11.9355   45.8227  129.5624 C   0  0  0  0  0  0  0  0  0  0  0  0
   13.3929   46.3243  132.3756 H   0  0  0  0  0  0  0  0  0  0  0  0
  6  7  1  0  0  0
  7  8  1  0  0  0
  8  9  1  0  0  0
  9 10  1  0  0  0
 10 11  1  0  0  0
 11 12  1  0  0  0
 12 13  1  0  0  0
 13 14  1  0  0  0
  7  2  1  0  0  0
  2  3  2  0  0  0
  2  4  1  0  0  0
  4  1  1  0  0  0
  1 39  1  0  0  0
 39 40  1  0  0  0
 40 41  2  0  0  0
 41 42  1  0  0  0
 42 43  1  0  0  0
 43 44  2  0  0  0
 44 45  1  0  0  0
 45 46  2  0  0  0
 46 47  1  0  0  0
 47 48  2  0  0  0
  1 16  1  0  0  0
 16 17  2  0  0  0
 16 18  1  0  0  0
 18 20  1  0  0  0
 20 32  1  0  0  0
 32 33  1  0  0  0
 33 34  1  0  0  0
 34 35  1  0  0  0
 35 36  1  0  0  0
 20 21  1  0  0  0
 21 22  2  0  0  0
 21 23  1  0  0  0
 23 25  1  0  0  0
 25 26  1  0  0  0
 26 27  2  0  0  0
 27 28  1  0  0  0
 28 29  2  0  0  0
 29 30  1  0  0  0
 30 31  2  0  0  0
 12  7  1  0  0  0
 48 40  1  0  0  0
 31 26  1  0  0  0
 14  9  1  0  0  0
 48 43  1  0  0  0
  6 15  1  0  0  0
  4  5  1  0  0  0
 42 49  1  0  0  0
 18 19  1  0  0  0
 36 37  1  0  0  0
 36 38  1  0  0  0
 23 24  1  0  0  0
M  END
> <minimizedAffinity>
18.33602

> <CNNscore>
0.2721154392

> <CNNaffinity>
7.4407873154

> <CNN_VS>
2.0247530937

> <CNNaffinity_variance>
0.6051597595

$$$$
[H]OC1(C(=O)N([H])[C@]([H])(C(=O)N([H])[C@]([H])(C(=O)N([H])C([H])([H])c2c([H])c([H])c([H])c([H])c2[H])C([H])([H])C([H])([H])C([H])([H])C([H])([H])N([H])[H])C([H])([H])c2c([H])n([H])c3c([H])c([H])c([H])c([H])c23)C([H])([H])N2C([H])([H])C([H])([H])C1([H])C([H])([H])C2([H])[H]


 49 53  0  0  0  0  0  0  0  0999 V2000
   10.7583   48.2140  129.6897 C   0  0  0  0  0  0  0  0  0  0  0  0
    8.3637   47.6537  129.8836 C   0  0  0  0  0  0  0  0  0  0  0  0
    8.6987   46.5020  130.2489 O   0  0  0  0  0  0  0  0  0  0  0  0
    9.3959   48.5642  129.5878 N   0  0  0  0  0  0  0  0  0  0  0  0
    9.1399   49.5272  129.2861 H   0  0  0  0  0  0  0  0  0  0  0  0
    6.2136   46.8502  129.9884 O   0  0  0  0  0  0  0  0  0  0  0  0
    6.9575   48.0379  129.7680 C   0  0  0  0  0  0  0  0  0  0  0  0
    6.6278   49.0634  130.8197 C   0  0  0  0  0  0  0  0  0  0  0  0
    5.6982   50.0212  130.2084 N   0  0  0  0  0  0  0  0  0  0  0  0
    4.6372   49.2822  129.6044 C   0  0  0  0  0  0  0  0  0  0  0  0
    5.1066   48.7328  128.2721 C   0  0  0  0  0  0  0  0  0  0  0  0
    6.6433   48.5805  128.3990 C   0  0  0  0  0  0  0  0  0  0  0  0
    7.1661   49.9793  128.2509 C   0  0  0  0  0  0  0  0  0  0  0  0
    6.4636   50.8412  129.3005 C   0  0  0  0  0  0  0  0  0  0  0  0
    6.0366   46.7896  130.9701 H   0  0  0  0  0  0  0  0  0  0  0  0
   10.9759   46.9106  128.9669 C   0  0  0  0  0  0  0  0  0  0  0  0
   10.3005   46.7071  127.9308 O   0  0  0  0  0  0  0  0  0  0  0  0
   11.8884   45.9375  129.4056 N   0  0  0  0  0  0  0  0  0  0  0  0
   12.4479   46.1121  130.2598 H   0  0  0  0  0  0  0  0  0  0  0  0
   12.0721   44.6956  128.6922 C   0  0  0  0  0  0  0  0  0  0  0  0
   10.8189   43.8902  128.8028 C   0  0  0  0  0  0  0  0  0  0  0  0
   10.5433   43.0841  127.8893 O   0  0  0  0  0  0  0  0  0  0  0  0
    9.9440   44.0174  129.9099 N   0  0  0  0  0  0  0  0  0  0  0  0
   10.1983   44.7043  130.6620 H   0  0  0  0  0  0  0  0  0  0  0  0
    8.7596   43.2204  129.9684 C   0  0  0  0  0  0  0  0  0  0  0  0
    8.4122   42.7193  131.3080 C   0  0  0  0  0  0  0  0  0  0  0  0
    9.1248   42.9153  132.4563 C   0  0  0  0  0  0  0  0  0  0  0  0
    8.7245   42.4070  133.6778 C   0  0  0  0  0  0  0  0  0  0  0  0
    7.5646   41.6705  133.7654 C   0  0  0  0  0  0  0  0  0  0  0  0
    6.8342   41.4603  132.6319 C   0  0  0  0  0  0  0  0  0  0  0  0
    7.2514   41.9774  131.4185 C   0  0  0  0  0  0  0  0  0  0  0  0
   13.2495   43.9411  129.2797 C   0  0  0  0  0  0  0  0  0  0  0  0
   13.0003   43.6043  130.7213 C   0  0  0  0  0  0  0  0  0  0  0  0
   12.8574   44.8343  131.5631 C   0  0  0  0  0  0  0  0  0  0  0  0
   12.5777   44.5339  133.0150 C   0  0  0  0  0  0  0  0  0  0  0  0
   12.6144   43.0885  133.2072 N   0  0  0  0  0  0  0  0  0  0  0  0
   13.5012   42.7801  133.6596 H   0  0  0  0  0  0  0  0  0  0  0  0
   12.4234   42.6433  132.2938 H   0  0  0  0  0  0  0  0  0  0  0  0
   11.3306   48.0978  131.0681 C   0  0  0  0  0  0  0  0  0  0  0  0
   10.4259   48.4106  132.1708 C   0  0  0  0  0  0  0  0  0  0  0  0
    9.8957   49.6696  132.4293 C   0  0  0  0  0  0  0  0  0  0  0  0
    9.0777   49.5963  133.4985 N   0  0  0  0  0  0  0  0  0  0  0  0
    9.0479   48.3362  133.9566 C   0  0  0  0  0  0  0  0  0  0  0  0
    8.3799   47.7667  135.0137 C   0  0  0  0  0  0  0  0  0  0  0  0
    8.5563   46.4234  135.2532 C   0  0  0  0  0  0  0  0  0  0  0  0
    9.3796   45.6593  134.4597 C   0  0  0  0  0  0  0  0  0  0  0  0
   10.0396   46.2455  133.4061 C   0  0  0  0  0  0  0  0  0  0  0  0
    9.8908   47.5871  133.1301 C   0  0  0  0  0  0  0  0  0  0  0  0
    8.5369   50.3840  133.9261 H   0  0  0  0  0  0  0  0  0  0  0  0
  6  7  1  0  0  0
  7  8  1  0  0  0
  8  9  1  0  0  0
  9 10  1  0  0  0
 10 11  1  0  0  0
 11 12  1  0  0  0
 12 13  1  0  0  0
 13 14  1  0  0  0
  7  2  1  0  0  0
  2  3  2  0  0  0
  2  4  1  0  0  0
  4  1  1  0  0  0
  1 39  1  0  0  0
 39 40  1  0  0  0
 40 41  2  0  0  0
 41 42  1  0  0  0
 42 43  1  0  0  0
 43 44  2  0  0  0
 44 45  1  0  0  0
 45 46  2  0  0  0
 46 47  1  0  0  0
 47 48  2  0  0  0
  1 16  1  0  0  0
 16 17  2  0  0  0
 16 18  1  0  0  0
 18 20  1  0  0  0
 20 32  1  0  0  0
 32 33  1  0  0  0
 33 34  1  0  0  0
 34 35  1  0  0  0
 35 36  1  0  0  0
 20 21  1  0  0  0
 21 22  2  0  0  0
 21 23  1  0  0  0
 23 25  1  0  0  0
 25 26  1  0  0  0
 26 27  2  0  0  0
 27 28  1  0  0  0
 28 29  2  0  0  0
 29 30  1  0  0  0
 30 31  2  0  0  0
 12  7  1  0  0  0
 48 40  1  0  0  0
 31 26  1  0  0  0
 14  9  1  0  0  0
 48 43  1  0  0  0
  6 15  1  0  0  0
  4  5  1  0  0  0
 42 49  1  0  0  0
 18 19  1  0  0  0
 36 37  1  0  0  0
 36 38  1  0  0  0
 23 24  1  0  0  0
M  END
> <minimizedAffinity>
6.37659

> <CNNscore>
0.2712952793

> <CNNaffinity>
7.7394967079

> <CNN_VS>
2.0996890068

> <CNNaffinity_variance>
0.4184224010

$$$$
[H]c1c([H])c([H])c(C([H])([H])[C@]2(C(=O)N([H])[C@]3([H])C(=O)C([H])([H])[C@]4([H])C([H])([H])[C@@]([H])(C3([H])[H])C([H])([H])[C@]([H])(C3([H])C([H])([H])C([H])([H])C([H])([H])C([H])([H])C3([H])[H])[C@@]4([H])OC(=O)c3c([H])c([H])c(OC([H])([H])[H])c([H])c3[H])C([H])([H])C([H])([H])[C@@]([H])(C([H])([H])N3C([H])([H])C([H])([H])OC([H])([H])C3([H])[H])C2([H])[H])c([H])c1[H]


 51 57  0  0  0  0  0  0  0  0999 V2000
    6.5716   51.2013  129.8812 C   0  0  0  0  0  0  0  0  0  0  0  0
    6.0126   52.2701  130.2176 O   0  0  0  0  0  0  0  0  0  0  0  0
    6.9632   51.2550  128.4644 C   0  0  0  0  0  0  0  0  0  0  0  0
    8.3830   50.6844  128.2045 C   0  0  0  0  0  0  0  0  0  0  0  0
    8.5780   49.7727  129.3229 C   0  0  0  0  0  0  0  0  0  0  0  0
    8.9579   50.6314  130.5242 C   0  0  0  0  0  0  0  0  0  0  0  0
    8.0461   50.0676  131.5828 C   0  0  0  0  0  0  0  0  0  0  0  0
    6.6426   50.2659  131.0161 C   0  0  0  0  0  0  0  0  0  0  0  0
    8.4305   48.6068  131.7004 C   0  0  0  0  0  0  0  0  0  0  0  0
    9.3402   48.0153  130.7300 C   0  0  0  0  0  0  0  0  0  0  0  0
    9.5048   48.6543  129.3640 C   0  0  0  0  0  0  0  0  0  0  0  0
    9.1203   46.5532  130.4602 C   0  0  0  0  0  0  0  0  0  0  0  0
    8.0344   46.2161  129.4783 C   0  0  0  0  0  0  0  0  0  0  0  0
    7.7407   44.7238  129.7696 C   0  0  0  0  0  0  0  0  0  0  0  0
    8.8949   43.9682  129.1090 C   0  0  0  0  0  0  0  0  0  0  0  0
   10.0795   44.8505  128.9070 C   0  0  0  0  0  0  0  0  0  0  0  0
   10.3389   45.7672  130.1117 C   0  0  0  0  0  0  0  0  0  0  0  0
    6.7763   52.5354  127.8763 N   0  0  0  0  0  0  0  0  0  0  0  0
    7.2212   52.9427  126.6159 C   0  0  0  0  0  0  0  0  0  0  0  0
    7.8625   52.1731  125.8797 O   0  0  0  0  0  0  0  0  0  0  0  0
    6.2415   53.2426  128.4677 H   0  0  0  0  0  0  0  0  0  0  0  0
    6.9278   54.3402  126.1072 C   0  0  0  0  0  0  0  0  0  0  0  0
    6.0583   55.0055  127.1229 C   0  0  0  0  0  0  0  0  0  0  0  0
    4.7348   55.3264  126.4672 C   0  0  0  0  0  0  0  0  0  0  0  0
    5.0127   55.2576  124.9605 C   0  0  0  0  0  0  0  0  0  0  0  0
    6.0654   54.2171  124.8837 C   0  0  0  0  0  0  0  0  0  0  0  0
    8.2482   54.9723  125.8614 C   0  0  0  0  0  0  0  0  0  0  0  0
    8.6548   55.2655  124.5039 C   0  0  0  0  0  0  0  0  0  0  0  0
    9.7602   56.0328  124.2475 C   0  0  0  0  0  0  0  0  0  0  0  0
   10.1216   56.3202  122.9565 C   0  0  0  0  0  0  0  0  0  0  0  0
    9.3800   55.8431  121.8959 C   0  0  0  0  0  0  0  0  0  0  0  0
    8.2743   55.0759  122.1518 C   0  0  0  0  0  0  0  0  0  0  0  0
    7.9325   54.8021  123.4386 C   0  0  0  0  0  0  0  0  0  0  0  0
    3.6631   54.3082  126.7270 C   0  0  0  0  0  0  0  0  0  0  0  0
    2.6358   54.2340  125.7377 N   0  0  0  0  0  0  0  0  0  0  0  0
    2.5867   52.8843  125.2113 C   0  0  0  0  0  0  0  0  0  0  0  0
    1.4396   52.0918  125.8331 C   0  0  0  0  0  0  0  0  0  0  0  0
    1.4074   52.2842  127.2133 O   0  0  0  0  0  0  0  0  0  0  0  0
    1.1585   53.5899  127.5658 C   0  0  0  0  0  0  0  0  0  0  0  0
    1.3605   54.4911  126.3810 C   0  0  0  0  0  0  0  0  0  0  0  0
    8.9798   48.5119  133.0039 O   0  0  0  0  0  0  0  0  0  0  0  0
    8.8225   47.4956  133.8973 C   0  0  0  0  0  0  0  0  0  0  0  0
    8.2992   47.8369  135.0179 O   0  0  0  0  0  0  0  0  0  0  0  0
    9.2035   46.1151  133.6462 C   0  0  0  0  0  0  0  0  0  0  0  0
    8.2548   45.1485  133.4371 C   0  0  0  0  0  0  0  0  0  0  0  0
    8.6220   43.8204  133.1884 C   0  0  0  0  0  0  0  0  0  0  0  0
    9.9232   43.4518  133.1472 C   0  0  0  0  0  0  0  0  0  0  0  0
   10.9036   44.4211  133.3573 C   0  0  0  0  0  0  0  0  0  0  0  0
   10.5122   45.7101  133.5977 C   0  0  0  0  0  0  0  0  0  0  0  0
   10.3334   42.1250  132.8998 O   0  0  0  0  0  0  0  0  0  0  0  0
   11.3160   41.8711  131.9284 C   0  0  0  0  0  0  0  0  0  0  0  0
  1  2  2  0  0  0
  1  3  1  0  0  0
  3 18  1  0  0  0
 18 19  1  0  0  0
 22 19  1  0  0  0
 22 27  1  0  0  0
 27 28  1  0  0  0
 28 29  2  0  0  0
 29 30  1  0  0  0
 30 31  2  0  0  0
 31 32  1  0  0  0
 32 33  2  0  0  0
 22 23  1  0  0  0
 23 24  1  0  0  0
 24 34  1  0  0  0
 34 35  1  0  0  0
 35 36  1  0  0  0
 36 37  1  0  0  0
 37 38  1  0  0  0
 38 39  1  0  0  0
 39 40  1  0  0  0
 24 25  1  0  0  0
 25 26  1  0  0  0
 19 20  2  0  0  0
  3  4  1  0  0  0
  4  5  1  0  0  0
  5  6  1  0  0  0
  6  7  1  0  0  0
  7  8  1  0  0  0
  7  9  1  0  0  0
  9 41  1  0  0  0
 41 42  1  0  0  0
 42 43  2  0  0  0
 42 44  1  0  0  0
 44 45  2  0  0  0
 45 46  1  0  0  0
 46 47  2  0  0  0
 47 50  1  0  0  0
 50 51  1  0  0  0
 47 48  1  0  0  0
 48 49  2  0  0  0
  9 10  1  0  0  0
 10 12  1  0  0  0
 12 13  1  0  0  0
 13 14  1  0  0  0
 14 15  1  0  0  0
 15 16  1  0  0  0
 16 17  1  0  0  0
 10 11  1  0  0  0
  8  1  1  0  0  0
 49 44  1  0  0  0
 17 12  1  0  0  0
 26 22  1  0  0  0
 11  5  1  0  0  0
 33 28  1  0  0  0
 40 35  1  0  0  0
 18 21  1  0  0  0
M  END
> <minimizedAffinity>
8.80533

> <CNNscore>
0.4680761099

> <CNNaffinity>
7.8452568054

> <CNN_VS>
3.6721773148

> <CNNaffinity_variance>
0.2577416897

$$$$
[H]c1c([H])c([H])c(C([H])([H])[C@]2(C(=O)N([H])[C@]3([H])C(=O)C([H])([H])[C@]4([H])C([H])([H])[C@@]([H])(C3([H])[H])C([H])([H])[C@]([H])(C3([H])C([H])([H])C([H])([H])C([H])([H])C([H])([H])C3([H])[H])[C@@]4([H])OC(=O)c3c([H])c([H])c(OC([H])([H])[H])c([H])c3[H])C([H])([H])C([H])([H])[C@@]([H])(C([H])([H])N3C([H])([H])C([H])([H])OC([H])([H])C3([H])[H])C2([H])[H])c([H])c1[H]


 51 57  0  0  0  0  0  0  0  0999 V2000
    6.2822   49.8409  128.8412 C   0  0  0  0  0  0  0  0  0  0  0  0
    5.2237   50.5056  128.9179 O   0  0  0  0  0  0  0  0  0  0  0  0
    7.3295   50.6260  128.1703 C   0  0  0  0  0  0  0  0  0  0  0  0
    8.7141   50.5079  128.8616 C   0  0  0  0  0  0  0  0  0  0  0  0
    8.6276   49.2271  129.5486 C   0  0  0  0  0  0  0  0  0  0  0  0
    7.8230   49.4683  130.8210 C   0  0  0  0  0  0  0  0  0  0  0  0
    6.8493   48.3197  130.7698 C   0  0  0  0  0  0  0  0  0  0  0  0
    6.1115   48.5098  129.4470 C   0  0  0  0  0  0  0  0  0  0  0  0
    7.7074   47.0712  130.7890 C   0  0  0  0  0  0  0  0  0  0  0  0
    9.1511   47.1803  130.6376 C   0  0  0  0  0  0  0  0  0  0  0  0
    9.7488   48.4065  129.9739 C   0  0  0  0  0  0  0  0  0  0  0  0
    9.8116   46.0064  129.9707 C   0  0  0  0  0  0  0  0  0  0  0  0
    8.8954   44.9260  129.4707 C   0  0  0  0  0  0  0  0  0  0  0  0
    9.8397   43.7116  129.2927 C   0  0  0  0  0  0  0  0  0  0  0  0
   10.5938   43.9975  127.9931 C   0  0  0  0  0  0  0  0  0  0  0  0
   10.5744   45.4504  127.6597 C   0  0  0  0  0  0  0  0  0  0  0  0
   10.7901   46.3374  128.8949 C   0  0  0  0  0  0  0  0  0  0  0  0
    6.9554   51.9762  127.9308 N   0  0  0  0  0  0  0  0  0  0  0  0
    7.2984   52.7475  126.8173 C   0  0  0  0  0  0  0  0  0  0  0  0
    8.0092   52.2853  125.9081 O   0  0  0  0  0  0  0  0  0  0  0  0
    6.3532   52.4300  128.6841 H   0  0  0  0  0  0  0  0  0  0  0  0
    6.8061   54.1750  126.6847 C   0  0  0  0  0  0  0  0  0  0  0  0
    6.8947   54.5394  125.2391 C   0  0  0  0  0  0  0  0  0  0  0  0
    7.8727   55.6840  125.1046 C   0  0  0  0  0  0  0  0  0  0  0  0
    7.9935   56.2693  126.5171 C   0  0  0  0  0  0  0  0  0  0  0  0
    7.7963   55.0729  127.3694 C   0  0  0  0  0  0  0  0  0  0  0  0
    5.4477   54.1971  127.2829 C   0  0  0  0  0  0  0  0  0  0  0  0
    4.3274   54.6512  126.4874 C   0  0  0  0  0  0  0  0  0  0  0  0
    3.2296   53.8552  126.2938 C   0  0  0  0  0  0  0  0  0  0  0  0
    2.1844   54.2901  125.5202 C   0  0  0  0  0  0  0  0  0  0  0  0
    2.2202   55.5336  124.9246 C   0  0  0  0  0  0  0  0  0  0  0  0
    3.3181   56.3300  125.1177 C   0  0  0  0  0  0  0  0  0  0  0  0
    4.3440   55.8807  125.8881 C   0  0  0  0  0  0  0  0  0  0  0  0
    9.2607   55.2583  124.7239 C   0  0  0  0  0  0  0  0  0  0  0  0
    9.3438   54.3579  123.6185 N   0  0  0  0  0  0  0  0  0  0  0  0
    8.0130   54.1448  123.0848 C   0  0  0  0  0  0  0  0  0  0  0  0
    7.7841   54.9780  121.8262 C   0  0  0  0  0  0  0  0  0  0  0  0
    8.2388   56.2818  122.0166 O   0  0  0  0  0  0  0  0  0  0  0  0
    9.5948   56.3489  122.2356 C   0  0  0  0  0  0  0  0  0  0  0  0
   10.1303   54.9867  122.5734 C   0  0  0  0  0  0  0  0  0  0  0  0
    7.3922   46.4708  132.0341 O   0  0  0  0  0  0  0  0  0  0  0  0
    8.0237   45.4222  132.6317 C   0  0  0  0  0  0  0  0  0  0  0  0
    7.3248   44.3499  132.7212 O   0  0  0  0  0  0  0  0  0  0  0  0
    9.3834   45.4666  133.1449 C   0  0  0  0  0  0  0  0  0  0  0  0
   10.2088   44.3767  133.0507 C   0  0  0  0  0  0  0  0  0  0  0  0
   11.5203   44.4219  133.5387 C   0  0  0  0  0  0  0  0  0  0  0  0
   12.0118   45.5418  134.1174 C   0  0  0  0  0  0  0  0  0  0  0  0
   11.1873   46.6617  134.2224 C   0  0  0  0  0  0  0  0  0  0  0  0
    9.9107   46.5855  133.7357 C   0  0  0  0  0  0  0  0  0  0  0  0
   13.3267   45.6269  134.6210 O   0  0  0  0  0  0  0  0  0  0  0  0
   13.9012   46.8875  134.8544 C   0  0  0  0  0  0  0  0  0  0  0  0
  1  2  2  0  0  0
  1  3  1  0  0  0
  3 18  1  0  0  0
 18 19  1  0  0  0
 22 19  1  0  0  0
 22 27  1  0  0  0
 27 28  1  0  0  0
 28 29  2  0  0  0
 29 30  1  0  0  0
 30 31  2  0  0  0
 31 32  1  0  0  0
 32 33  2  0  0  0
 22 23  1  0  0  0
 23 24  1  0  0  0
 24 34  1  0  0  0
 34 35  1  0  0  0
 35 36  1  0  0  0
 36 37  1  0  0  0
 37 38  1  0  0  0
 38 39  1  0  0  0
 39 40  1  0  0  0
 24 25  1  0  0  0
 25 26  1  0  0  0
 19 20  2  0  0  0
  3  4  1  0  0  0
  4  5  1  0  0  0
  5  6  1  0  0  0
  6  7  1  0  0  0
  7  8  1  0  0  0
  7  9  1  0  0  0
  9 41  1  0  0  0
 41 42  1  0  0  0
 42 43  2  0  0  0
 42 44  1  0  0  0
 44 45  2  0  0  0
 45 46  1  0  0  0
 46 47  2  0  0  0
 47 50  1  0  0  0
 50 51  1  0  0  0
 47 48  1  0  0  0
 48 49  2  0  0  0
  9 10  1  0  0  0
 10 12  1  0  0  0
 12 13  1  0  0  0
 13 14  1  0  0  0
 14 15  1  0  0  0
 15 16  1  0  0  0
 16 17  1  0  0  0
 10 11  1  0  0  0
  8  1  1  0  0  0
 49 44  1  0  0  0
 17 12  1  0  0  0
 26 22  1  0  0  0
 11  5  1  0  0  0
 33 28  1  0  0  0
 40 35  1  0  0  0
 18 21  1  0  0  0
M  END
> <minimizedAffinity>
12.94480

> <CNNscore>
0.4268364906

> <CNNaffinity>
7.8593864441

> <CNN_VS>
3.3546729088

> <CNNaffinity_variance>
0.1765418500

$$$$
[H]c1c([H])c([H])c(C([H])([H])[C@]2(C(=O)N([H])[C@]3([H])C(=O)C([H])([H])[C@]4([H])C([H])([H])[C@@]([H])(C3([H])[H])C([H])([H])[C@]([H])(C3([H])C([H])([H])C([H])([H])C([H])([H])C([H])([H])C3([H])[H])[C@@]4([H])OC(=O)c3c([H])c([H])c(OC([H])([H])[H])c([H])c3[H])C([H])([H])C([H])([H])[C@@]([H])(C([H])([H])N3C([H])([H])C([H])([H])OC([H])([H])C3([H])[H])C2([H])[H])c([H])c1[H]


 51 57  0  0  0  0  0  0  0  0999 V2000
    6.4794   51.3306  129.6545 C   0  0  0  0  0  0  0  0  0  0  0  0
    6.0550   52.4616  129.9843 O   0  0  0  0  0  0  0  0  0  0  0  0
    6.9088   51.3378  128.2478 C   0  0  0  0  0  0  0  0  0  0  0  0
    8.2490   50.5893  128.0178 C   0  0  0  0  0  0  0  0  0  0  0  0
    8.2975   49.6566  129.1348 C   0  0  0  0  0  0  0  0  0  0  0  0
    8.7559   50.4552  130.3500 C   0  0  0  0  0  0  0  0  0  0  0  0
    7.7536   50.0106  131.3833 C   0  0  0  0  0  0  0  0  0  0  0  0
    6.4016   50.3904  130.7849 C   0  0  0  0  0  0  0  0  0  0  0  0
    7.9434   48.5121  131.5008 C   0  0  0  0  0  0  0  0  0  0  0  0
    8.7924   47.8111  130.5485 C   0  0  0  0  0  0  0  0  0  0  0  0
    9.0710   48.4277  129.1908 C   0  0  0  0  0  0  0  0  0  0  0  0
    8.3921   46.3904  130.2645 C   0  0  0  0  0  0  0  0  0  0  0  0
    9.4585   45.5041  129.6864 C   0  0  0  0  0  0  0  0  0  0  0  0
    8.6548   44.3245  129.0857 C   0  0  0  0  0  0  0  0  0  0  0  0
    8.2685   43.4677  130.2924 C   0  0  0  0  0  0  0  0  0  0  0  0
    8.3103   44.2562  131.5569 C   0  0  0  0  0  0  0  0  0  0  0  0
    7.7274   45.6669  131.3866 C   0  0  0  0  0  0  0  0  0  0  0  0
    6.9031   52.6334  127.6633 N   0  0  0  0  0  0  0  0  0  0  0  0
    7.2839   52.9571  126.3585 C   0  0  0  0  0  0  0  0  0  0  0  0
    7.6925   52.0853  125.5720 O   0  0  0  0  0  0  0  0  0  0  0  0
    6.5721   53.4248  128.2959 H   0  0  0  0  0  0  0  0  0  0  0  0
    7.2038   54.3872  125.8623 C   0  0  0  0  0  0  0  0  0  0  0  0
    6.5444   55.1898  126.9352 C   0  0  0  0  0  0  0  0  0  0  0  0
    5.2525   55.7426  126.3784 C   0  0  0  0  0  0  0  0  0  0  0  0
    5.3995   55.6341  124.8556 C   0  0  0  0  0  0  0  0  0  0  0  0
    6.2435   54.4248  124.7081 C   0  0  0  0  0  0  0  0  0  0  0  0
    8.5926   54.7779  125.5129 C   0  0  0  0  0  0  0  0  0  0  0  0
    8.8870   55.2347  124.1717 C   0  0  0  0  0  0  0  0  0  0  0  0
    8.0333   54.9732  123.1328 C   0  0  0  0  0  0  0  0  0  0  0  0
    8.3353   55.3939  121.8633 C   0  0  0  0  0  0  0  0  0  0  0  0
    9.5015   56.0858  121.6105 C   0  0  0  0  0  0  0  0  0  0  0  0
   10.3557   56.3473  122.6491 C   0  0  0  0  0  0  0  0  0  0  0  0
   10.0383   55.9218  123.9005 C   0  0  0  0  0  0  0  0  0  0  0  0
    4.0408   54.9279  126.7261 C   0  0  0  0  0  0  0  0  0  0  0  0
    2.8444   55.2825  126.0317 N   0  0  0  0  0  0  0  0  0  0  0  0
    2.9875   54.9227  124.6347 C   0  0  0  0  0  0  0  0  0  0  0  0
    2.2604   53.6166  124.3248 C   0  0  0  0  0  0  0  0  0  0  0  0
    2.5353   52.6629  125.3035 O   0  0  0  0  0  0  0  0  0  0  0  0
    2.0792   53.0272  126.5486 C   0  0  0  0  0  0  0  0  0  0  0  0
    1.7515   54.4930  126.5689 C   0  0  0  0  0  0  0  0  0  0  0  0
    8.4441   48.3429  132.8164 O   0  0  0  0  0  0  0  0  0  0  0  0
    9.7441   48.1943  133.1953 C   0  0  0  0  0  0  0  0  0  0  0  0
   10.3422   49.2836  133.5146 O   0  0  0  0  0  0  0  0  0  0  0  0
   10.4434   46.9207  133.2491 C   0  0  0  0  0  0  0  0  0  0  0  0
   10.1750   46.0098  134.2372 C   0  0  0  0  0  0  0  0  0  0  0  0
   10.8435   44.7805  134.2849 C   0  0  0  0  0  0  0  0  0  0  0  0
   11.7738   44.4553  133.3578 C   0  0  0  0  0  0  0  0  0  0  0  0
   12.0609   45.3689  132.3441 C   0  0  0  0  0  0  0  0  0  0  0  0
   11.3902   46.5615  132.3252 C   0  0  0  0  0  0  0  0  0  0  0  0
   12.4686   43.2277  133.3715 O   0  0  0  0  0  0  0  0  0  0  0  0
   12.2612   42.3003  132.3369 C   0  0  0  0  0  0  0  0  0  0  0  0
  1  2  2  0  0  0
  1  3  1  0  0  0
  3 18  1  0  0  0
 18 19  1  0  0  0
 22 19  1  0  0  0
 22 27  1  0  0  0
 27 28  1  0  0  0
 28 29  2  0  0  0
 29 30  1  0  0  0
 30 31  2  0  0  0
 31 32  1  0  0  0
 32 33  2  0  0  0
 22 23  1  0  0  0
 23 24  1  0  0  0
 24 34  1  0  0  0
 34 35  1  0  0  0
 35 36  1  0  0  0
 36 37  1  0  0  0
 37 38  1  0  0  0
 38 39  1  0  0  0
 39 40  1  0  0  0
 24 25  1  0  0  0
 25 26  1  0  0  0
 19 20  2  0  0  0
  3  4  1  0  0  0
  4  5  1  0  0  0
  5  6  1  0  0  0
  6  7  1  0  0  0
  7  8  1  0  0  0
  7  9  1  0  0  0
  9 41  1  0  0  0
 41 42  1  0  0  0
 42 43  2  0  0  0
 42 44  1  0  0  0
 44 45  2  0  0  0
 45 46  1  0  0  0
 46 47  2  0  0  0
 47 50  1  0  0  0
 50 51  1  0  0  0
 47 48  1  0  0  0
 48 49  2  0  0  0
  9 10  1  0  0  0
 10 12  1  0  0  0
 12 13  1  0  0  0
 13 14  1  0  0  0
 14 15  1  0  0  0
 15 16  1  0  0  0
 16 17  1  0  0  0
 10 11  1  0  0  0
  8  1  1  0  0  0
 49 44  1  0  0  0
 17 12  1  0  0  0
 26 22  1  0  0  0
 11  5  1  0  0  0
 33 28  1  0  0  0
 40 35  1  0  0  0
 18 21  1  0  0  0
M  END
> <minimizedAffinity>
5.78848

> <CNNscore>
0.4122791290

> <CNNaffinity>
7.7269272804

> <CNN_VS>
3.1856508255

> <CNNaffinity_variance>
0.2252378464

$$$$
[H]c1c([H])c([H])c(C([H])([H])[C@]2(C(=O)N([H])[C@]3([H])C(=O)C([H])([H])[C@]4([H])C([H])([H])[C@@]([H])(C3([H])[H])C([H])([H])[C@]([H])(C3([H])C([H])([H])C([H])([H])C([H])([H])C([H])([H])C3([H])[H])[C@@]4([H])OC(=O)c3c([H])c([H])c(OC([H])([H])[H])c([H])c3[H])C([H])([H])C([H])([H])[C@@]([H])(C([H])([H])N3C([H])([H])C([H])([H])OC([H])([H])C3([H])[H])C2([H])[H])c([H])c1[H]


 51 57  0  0  0  0  0  0  0  0999 V2000
    8.1871   46.9782  131.9829 C   0  0  0  0  0  0  0  0  0  0  0  0
    7.6038   46.1384  131.2601 O   0  0  0  0  0  0  0  0  0  0  0  0
    9.3415   46.3599  132.6525 C   0  0  0  0  0  0  0  0  0  0  0  0
   10.6032   47.2639  132.6467 C   0  0  0  0  0  0  0  0  0  0  0  0
   10.0447   48.6026  132.5202 C   0  0  0  0  0  0  0  0  0  0  0  0
    9.6942   48.7915  131.0485 C   0  0  0  0  0  0  0  0  0  0  0  0
    8.3012   49.3558  131.1529 C   0  0  0  0  0  0  0  0  0  0  0  0
    7.5176   48.2877  131.9114 C   0  0  0  0  0  0  0  0  0  0  0  0
    8.4522   50.6421  131.9390 C   0  0  0  0  0  0  0  0  0  0  0  0
    9.7210   50.9565  132.5796 C   0  0  0  0  0  0  0  0  0  0  0  0
   10.6984   49.8425  132.9035 C   0  0  0  0  0  0  0  0  0  0  0  0
    9.6139   51.7692  133.8394 C   0  0  0  0  0  0  0  0  0  0  0  0
    9.4274   53.2490  133.6601 C   0  0  0  0  0  0  0  0  0  0  0  0
    9.8223   53.8282  135.0409 C   0  0  0  0  0  0  0  0  0  0  0  0
    8.6140   53.5480  135.9358 C   0  0  0  0  0  0  0  0  0  0  0  0
    7.7775   52.4405  135.3914 C   0  0  0  0  0  0  0  0  0  0  0  0
    8.6243   51.2823  134.8434 C   0  0  0  0  0  0  0  0  0  0  0  0
    9.6162   45.0411  132.1991 N   0  0  0  0  0  0  0  0  0  0  0  0
    9.4591   43.8618  132.9319 C   0  0  0  0  0  0  0  0  0  0  0  0
    9.0566   43.8834  134.1080 O   0  0  0  0  0  0  0  0  0  0  0  0
    9.9761   44.9613  131.1990 H   0  0  0  0  0  0  0  0  0  0  0  0
    9.7720   42.5164  132.3076 C   0  0  0  0  0  0  0  0  0  0  0  0
   11.1872   42.5689  131.8336 C   0  0  0  0  0  0  0  0  0  0  0  0
   11.1841   42.3952  130.3321 C   0  0  0  0  0  0  0  0  0  0  0  0
    9.8131   41.7896  130.0067 C   0  0  0  0  0  0  0  0  0  0  0  0
    8.9517   42.3834  131.0565 C   0  0  0  0  0  0  0  0  0  0  0  0
    9.4674   41.5016  133.3472 C   0  0  0  0  0  0  0  0  0  0  0  0
    8.0950   41.2908  133.7550 C   0  0  0  0  0  0  0  0  0  0  0  0
    7.0542   41.6019  132.9205 C   0  0  0  0  0  0  0  0  0  0  0  0
    5.7583   41.4166  133.3282 C   0  0  0  0  0  0  0  0  0  0  0  0
    5.4807   40.9153  134.5829 C   0  0  0  0  0  0  0  0  0  0  0  0
    6.5213   40.6043  135.4178 C   0  0  0  0  0  0  0  0  0  0  0  0
    7.7990   40.7951  134.9951 C   0  0  0  0  0  0  0  0  0  0  0  0
   11.2468   43.6860  129.5689 C   0  0  0  0  0  0  0  0  0  0  0  0
   10.4494   43.7372  128.3852 N   0  0  0  0  0  0  0  0  0  0  0  0
    9.0702   43.9827  128.7578 C   0  0  0  0  0  0  0  0  0  0  0  0
    8.6953   45.4476  128.5482 C   0  0  0  0  0  0  0  0  0  0  0  0
    9.6931   46.2817  129.0497 O   0  0  0  0  0  0  0  0  0  0  0  0
   10.8934   46.1334  128.3951 C   0  0  0  0  0  0  0  0  0  0  0  0
   10.8866   44.8674  127.5866 C   0  0  0  0  0  0  0  0  0  0  0  0
    8.1196   51.6481  130.9970 O   0  0  0  0  0  0  0  0  0  0  0  0
    7.1648   51.5918  130.0270 C   0  0  0  0  0  0  0  0  0  0  0  0
    6.1638   50.8359  130.2969 O   0  0  0  0  0  0  0  0  0  0  0  0
    7.2310   52.3137  128.7667 C   0  0  0  0  0  0  0  0  0  0  0  0
    7.3368   51.6447  127.5754 C   0  0  0  0  0  0  0  0  0  0  0  0
    7.3935   52.3398  126.3613 C   0  0  0  0  0  0  0  0  0  0  0  0
    7.3457   53.6916  126.3278 C   0  0  0  0  0  0  0  0  0  0  0  0
    7.2378   54.3905  127.5297 C   0  0  0  0  0  0  0  0  0  0  0  0
    7.1845   53.6820  128.6992 C   0  0  0  0  0  0  0  0  0  0  0  0
    7.4001   54.4279  125.1258 O   0  0  0  0  0  0  0  0  0  0  0  0
    8.1707   53.9503  124.0527 C   0  0  0  0  0  0  0  0  0  0  0  0
  1  2  2  0  0  0
  1  3  1  0  0  0
  3 18  1  0  0  0
 18 19  1  0  0  0
 22 19  1  0  0  0
 22 27  1  0  0  0
 27 28  1  0  0  0
 28 29  2  0  0  0
 29 30  1  0  0  0
 30 31  2  0  0  0
 31 32  1  0  0  0
 32 33  2  0  0  0
 22 23  1  0  0  0
 23 24  1  0  0  0
 24 34  1  0  0  0
 34 35  1  0  0  0
 35 36  1  0  0  0
 36 37  1  0  0  0
 37 38  1  0  0  0
 38 39  1  0  0  0
 39 40  1  0  0  0
 24 25  1  0  0  0
 25 26  1  0  0  0
 19 20  2  0  0  0
  3  4  1  0  0  0
  4  5  1  0  0  0
  5  6  1  0  0  0
  6  7  1  0  0  0
  7  8  1  0  0  0
  7  9  1  0  0  0
  9 41  1  0  0  0
 41 42  1  0  0  0
 42 43  2  0  0  0
 42 44  1  0  0  0
 44 45  2  0  0  0
 45 46  1  0  0  0
 46 47  2  0  0  0
 47 50  1  0  0  0
 50 51  1  0  0  0
 47 48  1  0  0  0
 48 49  2  0  0  0
  9 10  1  0  0  0
 10 12  1  0  0  0
 12 13  1  0  0  0
 13 14  1  0  0  0
 14 15  1  0  0  0
 15 16  1  0  0  0
 16 17  1  0  0  0
 10 11  1  0  0  0
  8  1  1  0  0  0
 49 44  1  0  0  0
 17 12  1  0  0  0
 26 22  1  0  0  0
 11  5  1  0  0  0
 33 28  1  0  0  0
 40 35  1  0  0  0
 18 21  1  0  0  0
M  END
> <minimizedAffinity>
40.16620

> <CNNscore>
0.3709577322

> <CNNaffinity>
7.8399238586

> <CNN_VS>
2.9082803726

> <CNNaffinity_variance>
0.4858559668

$$$$
[H]c1c([H])c([H])c(C([H])([H])[C@]2(C(=O)N([H])[C@]3([H])C(=O)C([H])([H])[C@]4([H])C([H])([H])[C@@]([H])(C3([H])[H])C([H])([H])[C@]([H])(C3([H])C([H])([H])C([H])([H])C([H])([H])C([H])([H])C3([H])[H])[C@@]4([H])OC(=O)c3c([H])c([H])c(OC([H])([H])[H])c([H])c3[H])C([H])([H])C([H])([H])[C@@]([H])(C([H])([H])N3C([H])([H])C([H])([H])OC([H])([H])C3([H])[H])C2([H])[H])c([H])c1[H]


 51 57  0  0  0  0  0  0  0  0999 V2000
    7.6429   49.9211  128.0282 C   0  0  0  0  0  0  0  0  0  0  0  0
    7.2668   49.9628  126.8346 O   0  0  0  0  0  0  0  0  0  0  0  0
    7.5093   51.2467  128.6512 C   0  0  0  0  0  0  0  0  0  0  0  0
    6.9174   51.1874  130.0848 C   0  0  0  0  0  0  0  0  0  0  0  0
    7.2578   49.8413  130.5228 C   0  0  0  0  0  0  0  0  0  0  0  0
    6.2412   48.9037  129.8810 C   0  0  0  0  0  0  0  0  0  0  0  0
    7.1436   47.8261  129.3384 C   0  0  0  0  0  0  0  0  0  0  0  0
    8.0863   48.5650  128.3920 C   0  0  0  0  0  0  0  0  0  0  0  0
    7.8546   47.2574  130.5493 C   0  0  0  0  0  0  0  0  0  0  0  0
    7.7344   47.9207  131.8395 C   0  0  0  0  0  0  0  0  0  0  0  0
    7.3556   49.3884  131.9001 C   0  0  0  0  0  0  0  0  0  0  0  0
    8.9296   47.7819  132.7404 C   0  0  0  0  0  0  0  0  0  0  0  0
    8.9335   46.5927  133.6583 C   0  0  0  0  0  0  0  0  0  0  0  0
    9.9830   46.9738  134.7313 C   0  0  0  0  0  0  0  0  0  0  0  0
   11.3323   46.7453  134.0483 C   0  0  0  0  0  0  0  0  0  0  0  0
   11.2019   46.7635  132.5634 C   0  0  0  0  0  0  0  0  0  0  0  0
   10.2598   47.8726  132.0721 C   0  0  0  0  0  0  0  0  0  0  0  0
    6.8414   52.1923  127.8265 N   0  0  0  0  0  0  0  0  0  0  0  0
    7.2271   53.5164  127.6017 C   0  0  0  0  0  0  0  0  0  0  0  0
    8.2347   53.9955  128.1502 O   0  0  0  0  0  0  0  0  0  0  0  0
    5.9619   51.8404  127.3380 H   0  0  0  0  0  0  0  0  0  0  0  0
    6.4258   54.4078  126.6738 C   0  0  0  0  0  0  0  0  0  0  0  0
    6.7106   53.9602  125.2778 C   0  0  0  0  0  0  0  0  0  0  0  0
    7.3719   55.1052  124.5455 C   0  0  0  0  0  0  0  0  0  0  0  0
    7.0506   56.3490  125.3834 C   0  0  0  0  0  0  0  0  0  0  0  0
    6.9951   55.7951  126.7569 C   0  0  0  0  0  0  0  0  0  0  0  0
    5.0142   54.3002  127.1203 C   0  0  0  0  0  0  0  0  0  0  0  0
    3.9623   54.1890  126.1327 C   0  0  0  0  0  0  0  0  0  0  0  0
    3.0077   53.2108  126.2243 C   0  0  0  0  0  0  0  0  0  0  0  0
    2.0292   53.1042  125.2698 C   0  0  0  0  0  0  0  0  0  0  0  0
    1.9891   53.9778  124.2031 C   0  0  0  0  0  0  0  0  0  0  0  0
    2.9438   54.9561  124.1110 C   0  0  0  0  0  0  0  0  0  0  0  0
    3.9055   55.0452  125.0674 C   0  0  0  0  0  0  0  0  0  0  0  0
    8.8699   55.0202  124.5071 C   0  0  0  0  0  0  0  0  0  0  0  0
    9.4192   54.4105  123.3384 N   0  0  0  0  0  0  0  0  0  0  0  0
    8.4108   53.5639  122.7318 C   0  0  0  0  0  0  0  0  0  0  0  0
    7.7606   54.2528  121.5346 C   0  0  0  0  0  0  0  0  0  0  0  0
    7.4406   55.5729  121.8477 O   0  0  0  0  0  0  0  0  0  0  0  0
    8.5470   56.3390  122.1304 C   0  0  0  0  0  0  0  0  0  0  0  0
    9.7353   55.4552  122.3819 C   0  0  0  0  0  0  0  0  0  0  0  0
    7.3573   45.9324  130.6346 O   0  0  0  0  0  0  0  0  0  0  0  0
    8.0725   44.7742  130.5844 C   0  0  0  0  0  0  0  0  0  0  0  0
    7.4505   43.7358  131.0099 O   0  0  0  0  0  0  0  0  0  0  0  0
    9.4380   44.6727  130.0953 C   0  0  0  0  0  0  0  0  0  0  0  0
   10.4014   44.0244  130.8230 C   0  0  0  0  0  0  0  0  0  0  0  0
   11.7147   43.9208  130.3488 C   0  0  0  0  0  0  0  0  0  0  0  0
   12.0717   44.4570  129.1590 C   0  0  0  0  0  0  0  0  0  0  0  0
   11.1054   45.1206  128.4035 C   0  0  0  0  0  0  0  0  0  0  0  0
    9.8310   45.2046  128.8947 C   0  0  0  0  0  0  0  0  0  0  0  0
   13.3835   44.3740  128.6470 O   0  0  0  0  0  0  0  0  0  0  0  0
   14.4770   44.4130  129.5280 C   0  0  0  0  0  0  0  0  0  0  0  0
  1  2  2  0  0  0
  1  3  1  0  0  0
  3 18  1  0  0  0
 18 19  1  0  0  0
 22 19  1  0  0  0
 22 27  1  0  0  0
 27 28  1  0  0  0
 28 29  2  0  0  0
 29 30  1  0  0  0
 30 31  2  0  0  0
 31 32  1  0  0  0
 32 33  2  0  0  0
 22 23  1  0  0  0
 23 24  1  0  0  0
 24 34  1  0  0  0
 34 35  1  0  0  0
 35 36  1  0  0  0
 36 37  1  0  0  0
 37 38  1  0  0  0
 38 39  1  0  0  0
 39 40  1  0  0  0
 24 25  1  0  0  0
 25 26  1  0  0  0
 19 20  2  0  0  0
  3  4  1  0  0  0
  4  5  1  0  0  0
  5  6  1  0  0  0
  6  7  1  0  0  0
  7  8  1  0  0  0
  7  9  1  0  0  0
  9 41  1  0  0  0
 41 42  1  0  0  0
 42 43  2  0  0  0
 42 44  1  0  0  0
 44 45  2  0  0  0
 45 46  1  0  0  0
 46 47  2  0  0  0
 47 50  1  0  0  0
 50 51  1  0  0  0
 47 48  1  0  0  0
 48 49  2  0  0  0
  9 10  1  0  0  0
 10 12  1  0  0  0
 12 13  1  0  0  0
 13 14  1  0  0  0
 14 15  1  0  0  0
 15 16  1  0  0  0
 16 17  1  0  0  0
 10 11  1  0  0  0
  8  1  1  0  0  0
 49 44  1  0  0  0
 17 12  1  0  0  0
 26 22  1  0  0  0
 11  5  1  0  0  0
 33 28  1  0  0  0
 40 35  1  0  0  0
 18 21  1  0  0  0
M  END
> <minimizedAffinity>
10.92232

> <CNNscore>
0.3633563817

> <CNNaffinity>
7.8003873825

> <CNN_VS>
2.8343205452

> <CNNaffinity_variance>
0.1555184126

$$$$
[H]c1c([H])c([H])c(C([H])([H])[C@]2(C(=O)N([H])[C@]3([H])C(=O)C([H])([H])[C@]4([H])C([H])([H])[C@@]([H])(C3([H])[H])C([H])([H])[C@]([H])(C3([H])C([H])([H])C([H])([H])C([H])([H])C([H])([H])C3([H])[H])[C@@]4([H])OC(=O)c3c([H])c([H])c(OC([H])([H])[H])c([H])c3[H])C([H])([H])C([H])([H])[C@@]([H])(C([H])([H])N3C([H])([H])C([H])([H])OC([H])([H])C3([H])[H])C2([H])[H])c([H])c1[H]


 51 57  0  0  0  0  0  0  0  0999 V2000
    8.6943   46.8078  133.5852 C   0  0  0  0  0  0  0  0  0  0  0  0
    9.2432   47.9139  133.7938 O   0  0  0  0  0  0  0  0  0  0  0  0
    7.5496   46.9705  132.6760 C   0  0  0  0  0  0  0  0  0  0  0  0
    7.4746   45.8645  131.5896 C   0  0  0  0  0  0  0  0  0  0  0  0
    8.1891   44.7547  132.2041 C   0  0  0  0  0  0  0  0  0  0  0  0
    9.6761   45.0504  132.0424 C   0  0  0  0  0  0  0  0  0  0  0  0
   10.1790   44.7760  133.4358 C   0  0  0  0  0  0  0  0  0  0  0  0
    9.3828   45.7331  134.3192 C   0  0  0  0  0  0  0  0  0  0  0  0
    9.8466   43.3214  133.6981 C   0  0  0  0  0  0  0  0  0  0  0  0
    8.9974   42.5917  132.7677 C   0  0  0  0  0  0  0  0  0  0  0  0
    8.0544   43.3509  131.8536 C   0  0  0  0  0  0  0  0  0  0  0  0
    8.1622   41.5057  133.3858 C   0  0  0  0  0  0  0  0  0  0  0  0
    8.2041   41.4087  134.8844 C   0  0  0  0  0  0  0  0  0  0  0  0
    7.6706   39.9822  135.1645 C   0  0  0  0  0  0  0  0  0  0  0  0
    6.1564   40.0945  134.9807 C   0  0  0  0  0  0  0  0  0  0  0  0
    5.7947   41.2732  134.1427 C   0  0  0  0  0  0  0  0  0  0  0  0
    6.7387   41.4512  132.9443 C   0  0  0  0  0  0  0  0  0  0  0  0
    7.4463   48.2780  132.1281 N   0  0  0  0  0  0  0  0  0  0  0  0
    8.0246   48.7273  130.9381 C   0  0  0  0  0  0  0  0  0  0  0  0
    8.7241   47.9749  130.2379 O   0  0  0  0  0  0  0  0  0  0  0  0
    6.8664   48.9717  132.6926 H   0  0  0  0  0  0  0  0  0  0  0  0
    7.8093   50.1507  130.4635 C   0  0  0  0  0  0  0  0  0  0  0  0
    6.4213   50.5402  130.8533 C   0  0  0  0  0  0  0  0  0  0  0  0
    5.6426   50.8230  129.5891 C   0  0  0  0  0  0  0  0  0  0  0  0
    6.7086   51.0372  128.5074 C   0  0  0  0  0  0  0  0  0  0  0  0
    7.7994   50.1427  128.9617 C   0  0  0  0  0  0  0  0  0  0  0  0
    8.9062   50.9523  131.0617 C   0  0  0  0  0  0  0  0  0  0  0  0
    9.8143   50.3274  131.9992 C   0  0  0  0  0  0  0  0  0  0  0  0
   10.5991   49.2692  131.6243 C   0  0  0  0  0  0  0  0  0  0  0  0
   11.4396   48.6732  132.5290 C   0  0  0  0  0  0  0  0  0  0  0  0
   11.5090   49.1276  133.8294 C   0  0  0  0  0  0  0  0  0  0  0  0
   10.7241   50.1857  134.2050 C   0  0  0  0  0  0  0  0  0  0  0  0
    9.8974   50.7629  133.2933 C   0  0  0  0  0  0  0  0  0  0  0  0
    4.8114   49.6673  129.1136 C   0  0  0  0  0  0  0  0  0  0  0  0
    4.7499   48.5506  130.0017 N   0  0  0  0  0  0  0  0  0  0  0  0
    3.6192   47.7206  129.6356 C   0  0  0  0  0  0  0  0  0  0  0  0
    4.0675   46.5013  128.8339 C   0  0  0  0  0  0  0  0  0  0  0  0
    4.9824   46.8749  127.8509 O   0  0  0  0  0  0  0  0  0  0  0  0
    6.1444   47.3946  128.3713 C   0  0  0  0  0  0  0  0  0  0  0  0
    5.9472   47.7515  129.8171 C   0  0  0  0  0  0  0  0  0  0  0  0
   11.1182   42.7008  133.7862 O   0  0  0  0  0  0  0  0  0  0  0  0
   12.1356   42.7642  132.8825 C   0  0  0  0  0  0  0  0  0  0  0  0
   13.2679   42.3410  133.3125 O   0  0  0  0  0  0  0  0  0  0  0  0
   11.9977   43.2653  131.5246 C   0  0  0  0  0  0  0  0  0  0  0  0
   11.0516   42.7524  130.6762 C   0  0  0  0  0  0  0  0  0  0  0  0
   10.9144   43.2398  129.3708 C   0  0  0  0  0  0  0  0  0  0  0  0
   11.7109   44.2309  128.9082 C   0  0  0  0  0  0  0  0  0  0  0  0
   12.6798   44.7661  129.7566 C   0  0  0  0  0  0  0  0  0  0  0  0
   12.7885   44.2681  131.0266 C   0  0  0  0  0  0  0  0  0  0  0  0
   11.6040   44.7487  127.6004 O   0  0  0  0  0  0  0  0  0  0  0  0
   10.5195   45.5772  127.2677 C   0  0  0  0  0  0  0  0  0  0  0  0
  1  2  2  0  0  0
  1  3  1  0  0  0
  3 18  1  0  0  0
 18 19  1  0  0  0
 22 19  1  0  0  0
 22 27  1  0  0  0
 27 28  1  0  0  0
 28 29  2  0  0  0
 29 30  1  0  0  0
 30 31  2  0  0  0
 31 32  1  0  0  0
 32 33  2  0  0  0
 22 23  1  0  0  0
 23 24  1  0  0  0
 24 34  1  0  0  0
 34 35  1  0  0  0
 35 36  1  0  0  0
 36 37  1  0  0  0
 37 38  1  0  0  0
 38 39  1  0  0  0
 39 40  1  0  0  0
 24 25  1  0  0  0
 25 26  1  0  0  0
 19 20  2  0  0  0
  3  4  1  0  0  0
  4  5  1  0  0  0
  5  6  1  0  0  0
  6  7  1  0  0  0
  7  8  1  0  0  0
  7  9  1  0  0  0
  9 41  1  0  0  0
 41 42  1  0  0  0
 42 43  2  0  0  0
 42 44  1  0  0  0
 44 45  2  0  0  0
 45 46  1  0  0  0
 46 47  2  0  0  0
 47 50  1  0  0  0
 50 51  1  0  0  0
 47 48  1  0  0  0
 48 49  2  0  0  0
  9 10  1  0  0  0
 10 12  1  0  0  0
 12 13  1  0  0  0
 13 14  1  0  0  0
 14 15  1  0  0  0
 15 16  1  0  0  0
 16 17  1  0  0  0
 10 11  1  0  0  0
  8  1  1  0  0  0
 49 44  1  0  0  0
 17 12  1  0  0  0
 26 22  1  0  0  0
 11  5  1  0  0  0
 33 28  1  0  0  0
 40 35  1  0  0  0
 18 21  1  0  0  0
M  END
> <minimizedAffinity>
29.29007

> <CNNscore>
0.3614353836

> <CNNaffinity>
8.1673097610

> <CNN_VS>
2.9519548416

> <CNNaffinity_variance>
0.5321263671

$$$$
[H]c1c([H])c([H])c(C([H])([H])[C@]2(C(=O)N([H])[C@]3([H])C(=O)C([H])([H])[C@]4([H])C([H])([H])[C@@]([H])(C3([H])[H])C([H])([H])[C@]([H])(C3([H])C([H])([H])C([H])([H])C([H])([H])C([H])([H])C3([H])[H])[C@@]4([H])OC(=O)c3c([H])c([H])c(OC([H])([H])[H])c([H])c3[H])C([H])([H])C([H])([H])[C@@]([H])(C([H])([H])N3C([H])([H])C([H])([H])OC([H])([H])C3([H])[H])C2([H])[H])c([H])c1[H]


 51 57  0  0  0  0  0  0  0  0999 V2000
    6.4256   51.0593  129.8676 C   0  0  0  0  0  0  0  0  0  0  0  0
    5.9219   52.1096  130.3270 O   0  0  0  0  0  0  0  0  0  0  0  0
    6.8896   51.2773  128.4890 C   0  0  0  0  0  0  0  0  0  0  0  0
    8.2801   50.6469  128.2091 C   0  0  0  0  0  0  0  0  0  0  0  0
    8.3591   49.5798  129.1964 C   0  0  0  0  0  0  0  0  0  0  0  0
    8.7346   50.2372  130.5199 C   0  0  0  0  0  0  0  0  0  0  0  0
    7.7364   49.6013  131.4522 C   0  0  0  0  0  0  0  0  0  0  0  0
    6.3788   49.9753  130.8630 C   0  0  0  0  0  0  0  0  0  0  0  0
    8.0179   48.1144  131.3804 C   0  0  0  0  0  0  0  0  0  0  0  0
    8.9338   47.5969  130.3742 C   0  0  0  0  0  0  0  0  0  0  0  0
    9.2074   48.4025  129.1183 C   0  0  0  0  0  0  0  0  0  0  0  0
    8.6320   46.2047  129.8947 C   0  0  0  0  0  0  0  0  0  0  0  0
    9.8180   45.3565  129.5327 C   0  0  0  0  0  0  0  0  0  0  0  0
    9.2005   44.2316  128.6657 C   0  0  0  0  0  0  0  0  0  0  0  0
    8.5386   43.2892  129.6722 C   0  0  0  0  0  0  0  0  0  0  0  0
    8.2586   43.9798  130.9634 C   0  0  0  0  0  0  0  0  0  0  0  0
    7.7196   45.4037  130.7608 C   0  0  0  0  0  0  0  0  0  0  0  0
    6.8166   52.6360  128.0780 N   0  0  0  0  0  0  0  0  0  0  0  0
    7.1567   53.1424  126.8209 C   0  0  0  0  0  0  0  0  0  0  0  0
    7.5864   52.3988  125.9219 O   0  0  0  0  0  0  0  0  0  0  0  0
    6.4648   53.3233  128.8128 H   0  0  0  0  0  0  0  0  0  0  0  0
    7.0055   54.6195  126.5159 C   0  0  0  0  0  0  0  0  0  0  0  0
    7.1022   54.7758  125.0339 C   0  0  0  0  0  0  0  0  0  0  0  0
    8.3124   55.6296  124.7318 C   0  0  0  0  0  0  0  0  0  0  0  0
    8.6391   56.3346  126.0541 C   0  0  0  0  0  0  0  0  0  0  0  0
    8.2121   55.3311  127.0576 C   0  0  0  0  0  0  0  0  0  0  0  0
    5.7226   55.0364  127.1354 C   0  0  0  0  0  0  0  0  0  0  0  0
    4.5537   55.2129  126.3007 C   0  0  0  0  0  0  0  0  0  0  0  0
    4.5194   56.1765  125.3277 C   0  0  0  0  0  0  0  0  0  0  0  0
    3.3973   56.3465  124.5583 C   0  0  0  0  0  0  0  0  0  0  0  0
    2.2860   55.5523  124.7503 C   0  0  0  0  0  0  0  0  0  0  0  0
    2.3199   54.5887  125.7235 C   0  0  0  0  0  0  0  0  0  0  0  0
    3.4417   54.4358  126.4757 C   0  0  0  0  0  0  0  0  0  0  0  0
    9.5410   54.8428  124.3794 C   0  0  0  0  0  0  0  0  0  0  0  0
    9.6181   54.4021  123.0232 N   0  0  0  0  0  0  0  0  0  0  0  0
    8.4958   53.5266  122.7488 C   0  0  0  0  0  0  0  0  0  0  0  0
    7.3957   54.2628  121.9884 C   0  0  0  0  0  0  0  0  0  0  0  0
    7.1592   55.5108  122.5623 O   0  0  0  0  0  0  0  0  0  0  0  0
    8.2487   56.3469  122.4926 C   0  0  0  0  0  0  0  0  0  0  0  0
    9.4826   55.5587  122.1570 C   0  0  0  0  0  0  0  0  0  0  0  0
    8.4945   47.8035  132.6789 O   0  0  0  0  0  0  0  0  0  0  0  0
    9.7805   47.5521  133.0513 C   0  0  0  0  0  0  0  0  0  0  0  0
   10.4245   48.5703  133.4926 O   0  0  0  0  0  0  0  0  0  0  0  0
   10.4182   46.2478  132.9726 C   0  0  0  0  0  0  0  0  0  0  0  0
    9.9364   45.1828  133.6879 C   0  0  0  0  0  0  0  0  0  0  0  0
   10.5464   43.9252  133.6066 C   0  0  0  0  0  0  0  0  0  0  0  0
   11.6289   43.7238  132.8203 C   0  0  0  0  0  0  0  0  0  0  0  0
   12.1341   44.7952  132.0844 C   0  0  0  0  0  0  0  0  0  0  0  0
   11.5152   46.0115  132.1855 C   0  0  0  0  0  0  0  0  0  0  0  0
   12.2715   42.4726  132.7116 O   0  0  0  0  0  0  0  0  0  0  0  0
   11.5717   41.3759  132.1816 C   0  0  0  0  0  0  0  0  0  0  0  0
  1  2  2  0  0  0
  1  3  1  0  0  0
  3 18  1  0  0  0
 18 19  1  0  0  0
 22 19  1  0  0  0
 22 27  1  0  0  0
 27 28  1  0  0  0
 28 29  2  0  0  0
 29 30  1  0  0  0
 30 31  2  0  0  0
 31 32  1  0  0  0
 32 33  2  0  0  0
 22 23  1  0  0  0
 23 24  1  0  0  0
 24 34  1  0  0  0
 34 35  1  0  0  0
 35 36  1  0  0  0
 36 37  1  0  0  0
 37 38  1  0  0  0
 38 39  1  0  0  0
 39 40  1  0  0  0
 24 25  1  0  0  0
 25 26  1  0  0  0
 19 20  2  0  0  0
  3  4  1  0  0  0
  4  5  1  0  0  0
  5  6  1  0  0  0
  6  7  1  0  0  0
  7  8  1  0  0  0
  7  9  1  0  0  0
  9 41  1  0  0  0
 41 42  1  0  0  0
 42 43  2  0  0  0
 42 44  1  0  0  0
 44 45  2  0  0  0
 45 46  1  0  0  0
 46 47  2  0  0  0
 47 50  1  0  0  0
 50 51  1  0  0  0
 47 48  1  0  0  0
 48 49  2  0  0  0
  9 10  1  0  0  0
 10 12  1  0  0  0
 12 13  1  0  0  0
 13 14  1  0  0  0
 14 15  1  0  0  0
 15 16  1  0  0  0
 16 17  1  0  0  0
 10 11  1  0  0  0
  8  1  1  0  0  0
 49 44  1  0  0  0
 17 12  1  0  0  0
 26 22  1  0  0  0
 11  5  1  0  0  0
 33 28  1  0  0  0
 40 35  1  0  0  0
 18 21  1  0  0  0
M  END
> <minimizedAffinity>
5.90584

> <CNNscore>
0.3556011319

> <CNNaffinity>
7.9050979614

> <CNN_VS>
2.8110618591

> <CNNaffinity_variance>
0.0862713009

$$$$
[H]c1c([H])c([H])c(C([H])([H])[C@]2(C(=O)N([H])[C@]3([H])C(=O)C([H])([H])[C@]4([H])C([H])([H])[C@@]([H])(C3([H])[H])C([H])([H])[C@]([H])(C3([H])C([H])([H])C([H])([H])C([H])([H])C([H])([H])C3([H])[H])[C@@]4([H])OC(=O)c3c([H])c([H])c(OC([H])([H])[H])c([H])c3[H])C([H])([H])C([H])([H])[C@@]([H])(C([H])([H])N3C([H])([H])C([H])([H])OC([H])([H])C3([H])[H])C2([H])[H])c([H])c1[H]


 51 57  0  0  0  0  0  0  0  0999 V2000
   10.3365   47.9719  130.5243 C   0  0  0  0  0  0  0  0  0  0  0  0
    9.8742   47.4853  129.4671 O   0  0  0  0  0  0  0  0  0  0  0  0
    9.7116   49.2741  130.8019 C   0  0  0  0  0  0  0  0  0  0  0  0
    9.3289   49.4585  132.2947 C   0  0  0  0  0  0  0  0  0  0  0  0
   10.2426   48.5552  132.9797 C   0  0  0  0  0  0  0  0  0  0  0  0
    9.6642   47.1527  132.8286 C   0  0  0  0  0  0  0  0  0  0  0  0
   10.8853   46.3806  132.4009 C   0  0  0  0  0  0  0  0  0  0  0  0
   11.3408   47.0749  131.1200 C   0  0  0  0  0  0  0  0  0  0  0  0
   11.8736   46.5399  133.5381 C   0  0  0  0  0  0  0  0  0  0  0  0
   11.5991   47.4843  134.6114 C   0  0  0  0  0  0  0  0  0  0  0  0
   10.6434   48.6382  134.3740 C   0  0  0  0  0  0  0  0  0  0  0  0
   12.8155   48.1003  135.2438 C   0  0  0  0  0  0  0  0  0  0  0  0
   12.6575   48.5764  136.6599 C   0  0  0  0  0  0  0  0  0  0  0  0
   13.8534   49.5423  136.8470 C   0  0  0  0  0  0  0  0  0  0  0  0
   15.0618   48.6254  137.0430 C   0  0  0  0  0  0  0  0  0  0  0  0
   14.8071   47.2628  136.4944 C   0  0  0  0  0  0  0  0  0  0  0  0
   14.0718   47.3024  135.1466 C   0  0  0  0  0  0  0  0  0  0  0  0
    8.6372   49.5823  129.9237 N   0  0  0  0  0  0  0  0  0  0  0  0
    7.8300   50.7219  129.9677 C   0  0  0  0  0  0  0  0  0  0  0  0
    7.9942   51.5941  130.8384 O   0  0  0  0  0  0  0  0  0  0  0  0
    8.4418   48.8632  129.1616 H   0  0  0  0  0  0  0  0  0  0  0  0
    6.7294   50.9293  128.9463 C   0  0  0  0  0  0  0  0  0  0  0  0
    7.3894   51.1305  127.6218 C   0  0  0  0  0  0  0  0  0  0  0  0
    7.0419   52.5177  127.1321 C   0  0  0  0  0  0  0  0  0  0  0  0
    5.8187   52.9340  127.9584 C   0  0  0  0  0  0  0  0  0  0  0  0
    6.0595   52.2398  129.2455 C   0  0  0  0  0  0  0  0  0  0  0  0
    5.8371   49.7485  129.0600 C   0  0  0  0  0  0  0  0  0  0  0  0
    6.4154   48.4356  129.2499 C   0  0  0  0  0  0  0  0  0  0  0  0
    7.0895   47.8071  128.2365 C   0  0  0  0  0  0  0  0  0  0  0  0
    7.6139   46.5542  128.4240 C   0  0  0  0  0  0  0  0  0  0  0  0
    7.4720   45.9062  129.6333 C   0  0  0  0  0  0  0  0  0  0  0  0
    6.7976   46.5343  130.6470 C   0  0  0  0  0  0  0  0  0  0  0  0
    6.2851   47.7763  130.4414 C   0  0  0  0  0  0  0  0  0  0  0  0
    8.0944   53.5478  127.4218 C   0  0  0  0  0  0  0  0  0  0  0  0
    8.6953   54.1491  126.2743 N   0  0  0  0  0  0  0  0  0  0  0  0
    7.9484   53.7601  125.0944 C   0  0  0  0  0  0  0  0  0  0  0  0
    7.0085   54.8757  124.6447 C   0  0  0  0  0  0  0  0  0  0  0  0
    6.3244   55.4055  125.7375 O   0  0  0  0  0  0  0  0  0  0  0  0
    7.1590   56.0027  126.6529 C   0  0  0  0  0  0  0  0  0  0  0  0
    8.5811   55.5904  126.3994 C   0  0  0  0  0  0  0  0  0  0  0  0
   11.9914   45.2278  134.0621 O   0  0  0  0  0  0  0  0  0  0  0  0
   12.1225   44.0655  133.3639 C   0  0  0  0  0  0  0  0  0  0  0  0
   13.0012   43.2531  133.8265 O   0  0  0  0  0  0  0  0  0  0  0  0
   11.3496   43.7272  132.1797 C   0  0  0  0  0  0  0  0  0  0  0  0
   10.0581   43.2810  132.2842 C   0  0  0  0  0  0  0  0  0  0  0  0
    9.3116   42.9618  131.1434 C   0  0  0  0  0  0  0  0  0  0  0  0
    9.8425   43.0840  129.9049 C   0  0  0  0  0  0  0  0  0  0  0  0
   11.1554   43.5366  129.7778 C   0  0  0  0  0  0  0  0  0  0  0  0
   11.8583   43.8404  130.9119 C   0  0  0  0  0  0  0  0  0  0  0  0
    9.1234   42.7726  128.7319 O   0  0  0  0  0  0  0  0  0  0  0  0
    9.4465   43.4182  127.5268 C   0  0  0  0  0  0  0  0  0  0  0  0
  1  2  2  0  0  0
  1  3  1  0  0  0
  3 18  1  0  0  0
 18 19  1  0  0  0
 22 19  1  0  0  0
 22 27  1  0  0  0
 27 28  1  0  0  0
 28 29  2  0  0  0
 29 30  1  0  0  0
 30 31  2  0  0  0
 31 32  1  0  0  0
 32 33  2  0  0  0
 22 23  1  0  0  0
 23 24  1  0  0  0
 24 34  1  0  0  0
 34 35  1  0  0  0
 35 36  1  0  0  0
 36 37  1  0  0  0
 37 38  1  0  0  0
 38 39  1  0  0  0
 39 40  1  0  0  0
 24 25  1  0  0  0
 25 26  1  0  0  0
 19 20  2  0  0  0
  3  4  1  0  0  0
  4  5  1  0  0  0
  5  6  1  0  0  0
  6  7  1  0  0  0
  7  8  1  0  0  0
  7  9  1  0  0  0
  9 41  1  0  0  0
 41 42  1  0  0  0
 42 43  2  0  0  0
 42 44  1  0  0  0
 44 45  2  0  0  0
 45 46  1  0  0  0
 46 47  2  0  0  0
 47 50  1  0  0  0
 50 51  1  0  0  0
 47 48  1  0  0  0
 48 49  2  0  0  0
  9 10  1  0  0  0
 10 12  1  0  0  0
 12 13  1  0  0  0
 13 14  1  0  0  0
 14 15  1  0  0  0
 15 16  1  0  0  0
 16 17  1  0  0  0
 10 11  1  0  0  0
  8  1  1  0  0  0
 49 44  1  0  0  0
 17 12  1  0  0  0
 26 22  1  0  0  0
 11  5  1  0  0  0
 33 28  1  0  0  0
 40 35  1  0  0  0
 18 21  1  0  0  0
M  END
> <minimizedAffinity>
19.92194

> <CNNscore>
0.3537846804

> <CNNaffinity>
8.0051994324

> <CNN_VS>
2.8321168423

> <CNNaffinity_variance>
0.2006684244

$$$$
[H]c1c([H])c([H])c(C([H])([H])[C@]2(C(=O)N([H])[C@]3([H])C(=O)C([H])([H])[C@]4([H])C([H])([H])[C@@]([H])(C3([H])[H])C([H])([H])[C@]([H])(C3([H])C([H])([H])C([H])([H])C([H])([H])C([H])([H])C3([H])[H])[C@@]4([H])OC(=O)c3c([H])c([H])c(OC([H])([H])[H])c([H])c3[H])C([H])([H])C([H])([H])[C@@]([H])(C([H])([H])N3C([H])([H])C([H])([H])OC([H])([H])C3([H])[H])C2([H])[H])c([H])c1[H]


 51 57  0  0  0  0  0  0  0  0999 V2000
    6.1410   50.0229  128.8069 C   0  0  0  0  0  0  0  0  0  0  0  0
    5.1773   50.7891  129.0357 O   0  0  0  0  0  0  0  0  0  0  0  0
    7.1679   50.7180  128.0158 C   0  0  0  0  0  0  0  0  0  0  0  0
    8.6111   50.4383  128.5139 C   0  0  0  0  0  0  0  0  0  0  0  0
    8.4814   49.1523  129.1841 C   0  0  0  0  0  0  0  0  0  0  0  0
    7.8803   49.4344  130.5565 C   0  0  0  0  0  0  0  0  0  0  0  0
    6.7932   48.3929  130.6160 C   0  0  0  0  0  0  0  0  0  0  0  0
    5.9125   48.6979  129.4070 C   0  0  0  0  0  0  0  0  0  0  0  0
    7.5107   47.0637  130.4989 C   0  0  0  0  0  0  0  0  0  0  0  0
    8.9255   47.0301  130.1580 C   0  0  0  0  0  0  0  0  0  0  0  0
    9.5564   48.2091  129.4417 C   0  0  0  0  0  0  0  0  0  0  0  0
    9.3662   45.8163  129.3887 C   0  0  0  0  0  0  0  0  0  0  0  0
   10.6397   45.1658  129.8492 C   0  0  0  0  0  0  0  0  0  0  0  0
   11.0581   44.3014  128.6344 C   0  0  0  0  0  0  0  0  0  0  0  0
   10.1381   43.0812  128.6949 C   0  0  0  0  0  0  0  0  0  0  0  0
    8.9081   43.3644  129.4881 C   0  0  0  0  0  0  0  0  0  0  0  0
    8.3324   44.7584  129.1979 C   0  0  0  0  0  0  0  0  0  0  0  0
    6.9093   52.1059  127.8517 N   0  0  0  0  0  0  0  0  0  0  0  0
    7.2120   52.8795  126.7281 C   0  0  0  0  0  0  0  0  0  0  0  0
    7.7752   52.3829  125.7373 O   0  0  0  0  0  0  0  0  0  0  0  0
    6.4367   52.5891  128.6759 H   0  0  0  0  0  0  0  0  0  0  0  0
    6.8553   54.3521  126.6848 C   0  0  0  0  0  0  0  0  0  0  0  0
    6.9481   54.7864  125.2590 C   0  0  0  0  0  0  0  0  0  0  0  0
    8.0277   55.8397  125.1604 C   0  0  0  0  0  0  0  0  0  0  0  0
    8.2330   56.3315  126.5985 C   0  0  0  0  0  0  0  0  0  0  0  0
    7.9406   55.1135  127.3905 C   0  0  0  0  0  0  0  0  0  0  0  0
    5.5180   54.4684  127.3185 C   0  0  0  0  0  0  0  0  0  0  0  0
    4.3701   54.7989  126.5016 C   0  0  0  0  0  0  0  0  0  0  0  0
    4.2333   56.0432  125.9454 C   0  0  0  0  0  0  0  0  0  0  0  0
    3.1299   56.3489  125.1910 C   0  0  0  0  0  0  0  0  0  0  0  0
    2.1406   55.4113  124.9798 C   0  0  0  0  0  0  0  0  0  0  0  0
    2.2769   54.1668  125.5361 C   0  0  0  0  0  0  0  0  0  0  0  0
    3.3781   53.8832  126.2808 C   0  0  0  0  0  0  0  0  0  0  0  0
    9.3606   55.3073  124.7216 C   0  0  0  0  0  0  0  0  0  0  0  0
    9.6034   55.3475  123.3148 N   0  0  0  0  0  0  0  0  0  0  0  0
    9.2439   54.0667  122.7390 C   0  0  0  0  0  0  0  0  0  0  0  0
    7.8768   54.1309  122.0627 C   0  0  0  0  0  0  0  0  0  0  0  0
    6.9599   54.7893  122.8806 O   0  0  0  0  0  0  0  0  0  0  0  0
    7.2953   56.1029  123.1109 C   0  0  0  0  0  0  0  0  0  0  0  0
    8.7274   56.3441  122.7269 C   0  0  0  0  0  0  0  0  0  0  0  0
    7.3001   46.4601  131.7644 O   0  0  0  0  0  0  0  0  0  0  0  0
    7.9433   45.3771  132.2831 C   0  0  0  0  0  0  0  0  0  0  0  0
    7.2773   44.2812  132.2408 O   0  0  0  0  0  0  0  0  0  0  0  0
    9.2808   45.4110  132.8523 C   0  0  0  0  0  0  0  0  0  0  0  0
    9.8365   46.5892  133.2779 C   0  0  0  0  0  0  0  0  0  0  0  0
   11.1218   46.6207  133.8323 C   0  0  0  0  0  0  0  0  0  0  0  0
   11.8531   45.4900  133.9644 C   0  0  0  0  0  0  0  0  0  0  0  0
   11.3049   44.2809  133.5373 C   0  0  0  0  0  0  0  0  0  0  0  0
   10.0464   44.2837  132.9999 C   0  0  0  0  0  0  0  0  0  0  0  0
   13.1508   45.4804  134.5175 O   0  0  0  0  0  0  0  0  0  0  0  0
   13.8335   46.6931  134.7089 C   0  0  0  0  0  0  0  0  0  0  0  0
  1  2  2  0  0  0
  1  3  1  0  0  0
  3 18  1  0  0  0
 18 19  1  0  0  0
 22 19  1  0  0  0
 22 27  1  0  0  0
 27 28  1  0  0  0
 28 29  2  0  0  0
 29 30  1  0  0  0
 30 31  2  0  0  0
 31 32  1  0  0  0
 32 33  2  0  0  0
 22 23  1  0  0  0
 23 24  1  0  0  0
 24 34  1  0  0  0
 34 35  1  0  0  0
 35 36  1  0  0  0
 36 37  1  0  0  0
 37 38  1  0  0  0
 38 39  1  0  0  0
 39 40  1  0  0  0
 24 25  1  0  0  0
 25 26  1  0  0  0
 19 20  2  0  0  0
  3  4  1  0  0  0
  4  5  1  0  0  0
  5  6  1  0  0  0
  6  7  1  0  0  0
  7  8  1  0  0  0
  7  9  1  0  0  0
  9 41  1  0  0  0
 41 42  1  0  0  0
 42 43  2  0  0  0
 42 44  1  0  0  0
 44 45  2  0  0  0
 45 46  1  0  0  0
 46 47  2  0  0  0
 47 50  1  0  0  0
 50 51  1  0  0  0
 47 48  1  0  0  0
 48 49  2  0  0  0
  9 10  1  0  0  0
 10 12  1  0  0  0
 12 13  1  0  0  0
 13 14  1  0  0  0
 14 15  1  0  0  0
 15 16  1  0  0  0
 16 17  1  0  0  0
 10 11  1  0  0  0
  8  1  1  0  0  0
 49 44  1  0  0  0
 17 12  1  0  0  0
 26 22  1  0  0  0
 11  5  1  0  0  0
 33 28  1  0  0  0
 40 35  1  0  0  0
 18 21  1  0  0  0
M  END
> <minimizedAffinity>
12.58458

> <CNNscore>
0.3502813578

> <CNNaffinity>
7.7277283669

> <CNN_VS>
2.7068791389

> <CNNaffinity_variance>
0.1733217239

$$$$
[H]c1c([H])c(-c2c(N([H])[H])nc(N([H])[H])nc2C([H])([H])[H])c([H])c(Cl)c1Cl


 21 22  0  0  0  0  0  0  0  0999 V2000
    9.6839   49.3746  132.5089 C   0  0  0  0  0  0  0  0  0  0  0  0
    8.8253   49.1174  131.3244 C   0  0  0  0  0  0  0  0  0  0  0  0
    8.3384   50.1375  130.5573 N   0  0  0  0  0  0  0  0  0  0  0  0
    7.5612   49.9036  129.4861 C   0  0  0  0  0  0  0  0  0  0  0  0
    7.0692   51.0024  128.6943 N   0  0  0  0  0  0  0  0  0  0  0  0
    7.2676   48.6310  129.1826 N   0  0  0  0  0  0  0  0  0  0  0  0
    7.7352   47.5904  129.9246 C   0  0  0  0  0  0  0  0  0  0  0  0
    7.4312   46.2474  129.6129 N   0  0  0  0  0  0  0  0  0  0  0  0
    8.5358   47.8109  131.0280 C   0  0  0  0  0  0  0  0  0  0  0  0
    6.6297   51.7839  129.2092 H   0  0  0  0  0  0  0  0  0  0  0  0
    7.1320   51.0522  127.6637 H   0  0  0  0  0  0  0  0  0  0  0  0
    6.5727   45.8304  130.0578 H   0  0  0  0  0  0  0  0  0  0  0  0
    7.9826   45.6390  128.9782 H   0  0  0  0  0  0  0  0  0  0  0  0
    9.0745   46.7397  131.8444 C   0  0  0  0  0  0  0  0  0  0  0  0
    8.4393   46.1140  132.8817 C   0  0  0  0  0  0  0  0  0  0  0  0
    9.0758   45.0858  133.5768 C   0  0  0  0  0  0  0  0  0  0  0  0
   10.3452   44.6963  133.2235 C   0  0  0  0  0  0  0  0  0  0  0  0
   11.2079   43.4045  134.0506 Cl  0  0  0  0  0  0  0  0  0  0  0  0
   11.0192   45.3047  132.1822 C   0  0  0  0  0  0  0  0  0  0  0  0
   12.6352   44.8457  131.6972 Cl  0  0  0  0  0  0  0  0  0  0  0  0
   10.3673   46.3138  131.5154 C   0  0  0  0  0  0  0  0  0  0  0  0
  1  2  1  0  0  0
  2  3  2  0  0  0
  3  4  1  0  0  0
  4  5  1  0  0  0
  4  6  2  0  0  0
  6  7  1  0  0  0
  7  8  1  0  0  0
  7  9  2  0  0  0
  9 14  1  0  0  0
 14 15  2  0  0  0
 15 16  1  0  0  0
 16 17  2  0  0  0
 17 18  1  0  0  0
 17 19  1  0  0  0
 19 20  1  0  0  0
 19 21  2  0  0  0
  9  2  1  0  0  0
 21 14  1  0  0  0
  5 10  1  0  0  0
  5 11  1  0  0  0
  8 12  1  0  0  0
  8 13  1  0  0  0
M  END
> <minimizedAffinity>
-8.31371

> <CNNscore>
0.8786028028

> <CNNaffinity>
7.2121443748

> <CNN_VS>
6.3366103172

> <CNNaffinity_variance>
0.1715779006

$$$$
[H]c1c([H])c(-c2c(N([H])[H])nc(N([H])[H])nc2C([H])([H])[H])c([H])c(Cl)c1Cl


 21 22  0  0  0  0  0  0  0  0999 V2000
    7.5462   46.2050  130.2894 C   0  0  0  0  0  0  0  0  0  0  0  0
    7.8801   47.6470  130.4133 C   0  0  0  0  0  0  0  0  0  0  0  0
    7.3371   48.5826  129.5790 N   0  0  0  0  0  0  0  0  0  0  0  0
    7.6405   49.8869  129.6917 C   0  0  0  0  0  0  0  0  0  0  0  0
    7.0450   50.8489  128.7993 N   0  0  0  0  0  0  0  0  0  0  0  0
    8.5006   50.2563  130.6516 N   0  0  0  0  0  0  0  0  0  0  0  0
    9.0606   49.3514  131.5000 C   0  0  0  0  0  0  0  0  0  0  0  0
    9.9673   49.7310  132.5135 N   0  0  0  0  0  0  0  0  0  0  0  0
    8.7602   48.0072  131.4003 C   0  0  0  0  0  0  0  0  0  0  0  0
    7.0786   50.6272  127.7900 H   0  0  0  0  0  0  0  0  0  0  0  0
    6.5942   51.7272  129.1057 H   0  0  0  0  0  0  0  0  0  0  0  0
   10.9915   49.7348  132.2689 H   0  0  0  0  0  0  0  0  0  0  0  0
    9.7064   50.0100  133.4783 H   0  0  0  0  0  0  0  0  0  0  0  0
    9.3150   47.0023  132.2871 C   0  0  0  0  0  0  0  0  0  0  0  0
    8.7947   46.6059  133.4884 C   0  0  0  0  0  0  0  0  0  0  0  0
    9.4305   45.6148  134.2360 C   0  0  0  0  0  0  0  0  0  0  0  0
   10.5840   45.0315  133.7697 C   0  0  0  0  0  0  0  0  0  0  0  0
   11.4374   43.7725  134.6548 Cl  0  0  0  0  0  0  0  0  0  0  0  0
   11.1400   45.4057  132.5617 C   0  0  0  0  0  0  0  0  0  0  0  0
   12.6064   44.6945  131.9279 Cl  0  0  0  0  0  0  0  0  0  0  0  0
   10.4917   46.3838  131.8469 C   0  0  0  0  0  0  0  0  0  0  0  0
  1  2  1  0  0  0
  2  3  2  0  0  0
  3  4  1  0  0  0
  4  5  1  0  0  0
  4  6  2  0  0  0
  6  7  1  0  0  0
  7  8  1  0  0  0
  7  9  2  0  0  0
  9 14  1  0  0  0
 14 15  2  0  0  0
 15 16  1  0  0  0
 16 17  2  0  0  0
 17 18  1  0  0  0
 17 19  1  0  0  0
 19 20  1  0  0  0
 19 21  2  0  0  0
  9  2  1  0  0  0
 21 14  1  0  0  0
  5 10  1  0  0  0
  5 11  1  0  0  0
  8 12  1  0  0  0
  8 13  1  0  0  0
M  END
> <minimizedAffinity>
-8.18449

> <CNNscore>
0.8437215686

> <CNNaffinity>
7.0072989464

> <CNN_VS>
5.9122090340

> <CNNaffinity_variance>
0.1124405041

$$$$
[H]c1c([H])c(-c2c(N([H])[H])nc(N([H])[H])nc2C([H])([H])[H])c([H])c(Cl)c1Cl


 21 22  0  0  0  0  0  0  0  0999 V2000
    8.3148   46.2101  129.4819 C   0  0  0  0  0  0  0  0  0  0  0  0
    8.3654   47.6477  129.8521 C   0  0  0  0  0  0  0  0  0  0  0  0
    7.6776   48.5939  129.1467 N   0  0  0  0  0  0  0  0  0  0  0  0
    7.7246   49.8944  129.4823 C   0  0  0  0  0  0  0  0  0  0  0  0
    6.9818   50.8663  128.7207 N   0  0  0  0  0  0  0  0  0  0  0  0
    8.4725   50.2495  130.5369 N   0  0  0  0  0  0  0  0  0  0  0  0
    9.1708   49.3338  131.2621 C   0  0  0  0  0  0  0  0  0  0  0  0
    9.9610   49.6983  132.3738 N   0  0  0  0  0  0  0  0  0  0  0  0
    9.1339   47.9931  130.9331 C   0  0  0  0  0  0  0  0  0  0  0  0
    7.0843   50.8259  127.6927 H   0  0  0  0  0  0  0  0  0  0  0  0
    6.3643   51.5839  129.1360 H   0  0  0  0  0  0  0  0  0  0  0  0
   10.9722   49.9301  132.1927 H   0  0  0  0  0  0  0  0  0  0  0  0
    9.6257   49.7601  133.3539 H   0  0  0  0  0  0  0  0  0  0  0  0
    9.8451   46.9729  131.6800 C   0  0  0  0  0  0  0  0  0  0  0  0
   10.8488   46.1737  131.2058 C   0  0  0  0  0  0  0  0  0  0  0  0
   11.4549   45.2370  132.0430 C   0  0  0  0  0  0  0  0  0  0  0  0
   11.0462   45.1117  133.3489 C   0  0  0  0  0  0  0  0  0  0  0  0
   11.7675   43.9569  134.4639 Cl  0  0  0  0  0  0  0  0  0  0  0  0
   10.0355   45.9004  133.8637 C   0  0  0  0  0  0  0  0  0  0  0  0
    9.4799   45.7764  135.5170 Cl  0  0  0  0  0  0  0  0  0  0  0  0
    9.4574   46.8144  133.0162 C   0  0  0  0  0  0  0  0  0  0  0  0
  1  2  1  0  0  0
  2  3  2  0  0  0
  3  4  1  0  0  0
  4  5  1  0  0  0
  4  6  2  0  0  0
  6  7  1  0  0  0
  7  8  1  0  0  0
  7  9  2  0  0  0
  9 14  1  0  0  0
 14 15  2  0  0  0
 15 16  1  0  0  0
 16 17  2  0  0  0
 17 18  1  0  0  0
 17 19  1  0  0  0
 19 20  1  0  0  0
 19 21  2  0  0  0
  9  2  1  0  0  0
 21 14  1  0  0  0
  5 10  1  0  0  0
  5 11  1  0  0  0
  8 12  1  0  0  0
  8 13  1  0  0  0
M  END
> <minimizedAffinity>
-7.20225

> <CNNscore>
0.7560263872

> <CNNaffinity>
6.8699569702

> <CNN_VS>
5.1938686371

> <CNNaffinity_variance>
0.1557008624

$$$$
[H]c1c([H])c(-c2c(N([H])[H])nc(N([H])[H])nc2C([H])([H])[H])c([H])c(Cl)c1Cl


 21 22  0  0  0  0  0  0  0  0999 V2000
   10.3606   48.3530  132.0349 C   0  0  0  0  0  0  0  0  0  0  0  0
    9.2018   48.4946  131.1165 C   0  0  0  0  0  0  0  0  0  0  0  0
    8.5969   49.7014  130.9069 N   0  0  0  0  0  0  0  0  0  0  0  0
    7.5482   49.8282  130.0762 C   0  0  0  0  0  0  0  0  0  0  0  0
    6.9370   51.1171  129.8726 N   0  0  0  0  0  0  0  0  0  0  0  0
    7.1000   48.7305  129.4502 N   0  0  0  0  0  0  0  0  0  0  0  0
    7.6782   47.5125  129.6355 C   0  0  0  0  0  0  0  0  0  0  0  0
    7.2130   46.3512  128.9810 N   0  0  0  0  0  0  0  0  0  0  0  0
    8.7571   47.3628  130.4843 C   0  0  0  0  0  0  0  0  0  0  0  0
    6.7042   51.6587  130.7220 H   0  0  0  0  0  0  0  0  0  0  0  0
    6.7256   51.5220  128.9452 H   0  0  0  0  0  0  0  0  0  0  0  0
    6.4786   45.7800  129.4740 H   0  0  0  0  0  0  0  0  0  0  0  0
    7.5331   46.0171  128.0521 H   0  0  0  0  0  0  0  0  0  0  0  0
    9.4215   46.0926  130.7067 C   0  0  0  0  0  0  0  0  0  0  0  0
   10.5524   45.6489  130.0781 C   0  0  0  0  0  0  0  0  0  0  0  0
   11.0918   44.4036  130.4003 C   0  0  0  0  0  0  0  0  0  0  0  0
   10.4893   43.6153  131.3508 C   0  0  0  0  0  0  0  0  0  0  0  0
   11.1153   42.0366  131.8124 Cl  0  0  0  0  0  0  0  0  0  0  0  0
    9.3458   44.0287  132.0066 C   0  0  0  0  0  0  0  0  0  0  0  0
    8.5424   43.0606  133.2211 Cl  0  0  0  0  0  0  0  0  0  0  0  0
    8.8374   45.2598  131.6692 C   0  0  0  0  0  0  0  0  0  0  0  0
  1  2  1  0  0  0
  2  3  2  0  0  0
  3  4  1  0  0  0
  4  5  1  0  0  0
  4  6  2  0  0  0
  6  7  1  0  0  0
  7  8  1  0  0  0
  7  9  2  0  0  0
  9 14  1  0  0  0
 14 15  2  0  0  0
 15 16  1  0  0  0
 16 17  2  0  0  0
 17 18  1  0  0  0
 17 19  1  0  0  0
 19 20  1  0  0  0
 19 21  2  0  0  0
  9  2  1  0  0  0
 21 14  1  0  0  0
  5 10  1  0  0  0
  5 11  1  0  0  0
  8 12  1  0  0  0
  8 13  1  0  0  0
M  END
> <minimizedAffinity>
-7.32908

> <CNNscore>
0.6952982545

> <CNNaffinity>
7.0619788170

> <CNN_VS>
4.9101815224

> <CNNaffinity_variance>
0.2798016965

$$$$
[H]c1c([H])c(-c2c(N([H])[H])nc(N([H])[H])nc2C([H])([H])[H])c([H])c(Cl)c1Cl


 21 22  0  0  0  0  0  0  0  0999 V2000
    6.5619   46.5068  129.7775 C   0  0  0  0  0  0  0  0  0  0  0  0
    7.2562   47.7991  130.0105 C   0  0  0  0  0  0  0  0  0  0  0  0
    6.8588   48.9484  129.3882 N   0  0  0  0  0  0  0  0  0  0  0  0
    7.4881   50.1169  129.5992 C   0  0  0  0  0  0  0  0  0  0  0  0
    7.0393   51.3123  128.9315 N   0  0  0  0  0  0  0  0  0  0  0  0
    8.5298   50.1316  130.4432 N   0  0  0  0  0  0  0  0  0  0  0  0
    8.9529   49.0058  131.0802 C   0  0  0  0  0  0  0  0  0  0  0  0
   10.0488   49.0116  131.9703 N   0  0  0  0  0  0  0  0  0  0  0  0
    8.3183   47.7963  130.8767 C   0  0  0  0  0  0  0  0  0  0  0  0
    6.8858   51.2432  127.9114 H   0  0  0  0  0  0  0  0  0  0  0  0
    6.8640   52.2140  129.4057 H   0  0  0  0  0  0  0  0  0  0  0  0
   11.0014   48.8184  131.5652 H   0  0  0  0  0  0  0  0  0  0  0  0
    9.9925   49.1944  132.9903 H   0  0  0  0  0  0  0  0  0  0  0  0
    8.7166   46.5696  131.5407 C   0  0  0  0  0  0  0  0  0  0  0  0
    8.2265   46.0942  132.7259 C   0  0  0  0  0  0  0  0  0  0  0  0
    8.6949   44.8874  133.2455 C   0  0  0  0  0  0  0  0  0  0  0  0
    9.6521   44.1700  132.5695 C   0  0  0  0  0  0  0  0  0  0  0  0
   10.2862   42.6385  133.1608 Cl  0  0  0  0  0  0  0  0  0  0  0  0
   10.1716   44.6180  131.3704 C   0  0  0  0  0  0  0  0  0  0  0  0
   11.3916   43.7419  130.4750 Cl  0  0  0  0  0  0  0  0  0  0  0  0
    9.6911   45.8092  130.8826 C   0  0  0  0  0  0  0  0  0  0  0  0
  1  2  1  0  0  0
  2  3  2  0  0  0
  3  4  1  0  0  0
  4  5  1  0  0  0
  4  6  2  0  0  0
  6  7  1  0  0  0
  7  8  1  0  0  0
  7  9  2  0  0  0
  9 14  1  0  0  0
 14 15  2  0  0  0
 15 16  1  0  0  0
 16 17  2  0  0  0
 17 18  1  0  0  0
 17 19  1  0  0  0
 19 20  1  0  0  0
 19 21  2  0  0  0
  9  2  1  0  0  0
 21 14  1  0  0  0
  5 10  1  0  0  0
  5 11  1  0  0  0
  8 12  1  0  0  0
  8 13  1  0  0  0
M  END
> <minimizedAffinity>
-7.73072

> <CNNscore>
0.6941016316

> <CNNaffinity>
7.0013723373

> <CNN_VS>
4.8596639633

> <CNNaffinity_variance>
0.1788876951

$$$$
[H]c1c([H])c(-c2c(N([H])[H])nc(N([H])[H])nc2C([H])([H])[H])c([H])c(Cl)c1Cl


 21 22  0  0  0  0  0  0  0  0999 V2000
   11.2418   43.8274  131.9642 C   0  0  0  0  0  0  0  0  0  0  0  0
   10.3326   43.9345  130.7945 C   0  0  0  0  0  0  0  0  0  0  0  0
   10.5584   43.2322  129.6447 N   0  0  0  0  0  0  0  0  0  0  0  0
    9.7355   43.3304  128.5868 C   0  0  0  0  0  0  0  0  0  0  0  0
    9.9991   42.5708  127.3910 N   0  0  0  0  0  0  0  0  0  0  0  0
    8.6746   44.1445  128.6833 N   0  0  0  0  0  0  0  0  0  0  0  0
    8.4191   44.8590  129.8131 C   0  0  0  0  0  0  0  0  0  0  0  0
    7.3048   45.7189  129.9238 N   0  0  0  0  0  0  0  0  0  0  0  0
    9.2527   44.7704  130.9105 C   0  0  0  0  0  0  0  0  0  0  0  0
   10.9621   42.6149  127.0172 H   0  0  0  0  0  0  0  0  0  0  0  0
    9.2952   41.9955  126.8989 H   0  0  0  0  0  0  0  0  0  0  0  0
    7.4397   46.7238  129.6397 H   0  0  0  0  0  0  0  0  0  0  0  0
    6.3629   45.4404  130.2587 H   0  0  0  0  0  0  0  0  0  0  0  0
    9.0198   45.4963  132.1446 C   0  0  0  0  0  0  0  0  0  0  0  0
    8.3995   45.0132  133.2638 C   0  0  0  0  0  0  0  0  0  0  0  0
    8.2528   45.8231  134.3900 C   0  0  0  0  0  0  0  0  0  0  0  0
    8.7304   47.1115  134.3806 C   0  0  0  0  0  0  0  0  0  0  0  0
    8.5863   48.1886  135.7648 Cl  0  0  0  0  0  0  0  0  0  0  0  0
    9.3618   47.6350  133.2690 C   0  0  0  0  0  0  0  0  0  0  0  0
    9.9840   49.2681  133.2087 Cl  0  0  0  0  0  0  0  0  0  0  0  0
    9.4925   46.8142  132.1749 C   0  0  0  0  0  0  0  0  0  0  0  0
  1  2  1  0  0  0
  2  3  2  0  0  0
  3  4  1  0  0  0
  4  5  1  0  0  0
  4  6  2  0  0  0
  6  7  1  0  0  0
  7  8  1  0  0  0
  7  9  2  0  0  0
  9 14  1  0  0  0
 14 15  2  0  0  0
 15 16  1  0  0  0
 16 17  2  0  0  0
 17 18  1  0  0  0
 17 19  1  0  0  0
 19 20  1  0  0  0
 19 21  2  0  0  0
  9  2  1  0  0  0
 21 14  1  0  0  0
  5 10  1  0  0  0
  5 11  1  0  0  0
  8 12  1  0  0  0
  8 13  1  0  0  0
M  END
> <minimizedAffinity>
-4.74744

> <CNNscore>
0.3829120994

> <CNNaffinity>
6.5310974121

> <CNN_VS>
2.5008361340

> <CNNaffinity_variance>
0.4778620303

$$$$
[H]c1c([H])c(-c2c(N([H])[H])nc(N([H])[H])nc2C([H])([H])[H])c([H])c(Cl)c1Cl


 21 22  0  0  0  0  0  0  0  0999 V2000
   10.3473   46.6134  133.2202 C   0  0  0  0  0  0  0  0  0  0  0  0
    9.9040   47.8777  132.5788 C   0  0  0  0  0  0  0  0  0  0  0  0
   10.0070   49.0802  133.2187 N   0  0  0  0  0  0  0  0  0  0  0  0
    9.6050   50.2234  132.6376 C   0  0  0  0  0  0  0  0  0  0  0  0
    9.7335   51.4761  133.3379 N   0  0  0  0  0  0  0  0  0  0  0  0
    9.0918   50.1585  131.4007 N   0  0  0  0  0  0  0  0  0  0  0  0
    8.9743   48.9780  130.7337 C   0  0  0  0  0  0  0  0  0  0  0  0
    8.4349   48.8998  129.4313 N   0  0  0  0  0  0  0  0  0  0  0  0
    9.3827   47.7933  131.3141 C   0  0  0  0  0  0  0  0  0  0  0  0
    9.3801   51.5021  134.3093 H   0  0  0  0  0  0  0  0  0  0  0  0
   10.1520   52.3301  132.9328 H   0  0  0  0  0  0  0  0  0  0  0  0
    7.3969   48.7439  129.3466 H   0  0  0  0  0  0  0  0  0  0  0  0
    8.9774   48.9874  128.5510 H   0  0  0  0  0  0  0  0  0  0  0  0
    9.2955   46.5099  130.6438 C   0  0  0  0  0  0  0  0  0  0  0  0
    8.2083   45.6801  130.6211 C   0  0  0  0  0  0  0  0  0  0  0  0
    8.2608   44.4734  129.9234 C   0  0  0  0  0  0  0  0  0  0  0  0
    9.4057   44.1114  129.2554 C   0  0  0  0  0  0  0  0  0  0  0  0
    9.5432   42.6083  128.3504 Cl  0  0  0  0  0  0  0  0  0  0  0  0
   10.5240   44.9226  129.2558 C   0  0  0  0  0  0  0  0  0  0  0  0
   12.0034   44.5043  128.4228 Cl  0  0  0  0  0  0  0  0  0  0  0  0
   10.4431   46.1051  129.9508 C   0  0  0  0  0  0  0  0  0  0  0  0
  1  2  1  0  0  0
  2  3  2  0  0  0
  3  4  1  0  0  0
  4  5  1  0  0  0
  4  6  2  0  0  0
  6  7  1  0  0  0
  7  8  1  0  0  0
  7  9  2  0  0  0
  9 14  1  0  0  0
 14 15  2  0  0  0
 15 16  1  0  0  0
 16 17  2  0  0  0
 17 18  1  0  0  0
 17 19  1  0  0  0
 19 20  1  0  0  0
 19 21  2  0  0  0
  9  2  1  0  0  0
 21 14  1  0  0  0
  5 10  1  0  0  0
  5 11  1  0  0  0
  8 12  1  0  0  0
  8 13  1  0  0  0
M  END
> <minimizedAffinity>
-3.88717

> <CNNscore>
0.3432126641

> <CNNaffinity>
6.3447122574

> <CNN_VS>
2.1775856018

> <CNNaffinity_variance>
0.2905953825

$$$$
[H]c1c([H])c(-c2c(N([H])[H])nc(N([H])[H])nc2C([H])([H])[H])c([H])c(Cl)c1Cl


 21 22  0  0  0  0  0  0  0  0999 V2000
    7.2668   45.7493  132.3816 C   0  0  0  0  0  0  0  0  0  0  0  0
    7.5323   46.3262  131.0389 C   0  0  0  0  0  0  0  0  0  0  0  0
    6.5297   46.8502  130.2732 N   0  0  0  0  0  0  0  0  0  0  0  0
    6.7710   47.3714  129.0582 C   0  0  0  0  0  0  0  0  0  0  0  0
    5.6913   47.9220  128.2787 N   0  0  0  0  0  0  0  0  0  0  0  0
    8.0330   47.3646  128.6056 N   0  0  0  0  0  0  0  0  0  0  0  0
    9.0562   46.8508  129.3413 C   0  0  0  0  0  0  0  0  0  0  0  0
   10.3880   46.8390  128.8729 N   0  0  0  0  0  0  0  0  0  0  0  0
    8.8279   46.3119  130.5921 C   0  0  0  0  0  0  0  0  0  0  0  0
    4.8441   47.3372  128.1828 H   0  0  0  0  0  0  0  0  0  0  0  0
    5.7157   48.8493  127.8226 H   0  0  0  0  0  0  0  0  0  0  0  0
   10.7035   45.9908  128.3345 H   0  0  0  0  0  0  0  0  0  0  0  0
   11.0800   47.5997  129.0127 H   0  0  0  0  0  0  0  0  0  0  0  0
    9.8822   45.7656  131.4253 C   0  0  0  0  0  0  0  0  0  0  0  0
   10.7000   46.4720  132.2639 C   0  0  0  0  0  0  0  0  0  0  0  0
   11.6697   45.8122  133.0188 C   0  0  0  0  0  0  0  0  0  0  0  0
   11.8091   44.4485  132.9235 C   0  0  0  0  0  0  0  0  0  0  0  0
   13.0056   43.5484  133.8483 Cl  0  0  0  0  0  0  0  0  0  0  0  0
   11.0025   43.7012  132.0872 C   0  0  0  0  0  0  0  0  0  0  0  0
   11.1433   41.9653  131.9304 Cl  0  0  0  0  0  0  0  0  0  0  0  0
   10.0560   44.3778  131.3563 C   0  0  0  0  0  0  0  0  0  0  0  0
  1  2  1  0  0  0
  2  3  2  0  0  0
  3  4  1  0  0  0
  4  5  1  0  0  0
  4  6  2  0  0  0
  6  7  1  0  0  0
  7  8  1  0  0  0
  7  9  2  0  0  0
  9 14  1  0  0  0
 14 15  2  0  0  0
 15 16  1  0  0  0
 16 17  2  0  0  0
 17 18  1  0  0  0
 17 19  1  0  0  0
 19 20  1  0  0  0
 19 21  2  0  0  0
  9  2  1  0  0  0
 21 14  1  0  0  0
  5 10  1  0  0  0
  5 11  1  0  0  0
  8 12  1  0  0  0
  8 13  1  0  0  0
M  END
> <minimizedAffinity>
-5.03254

> <CNNscore>
0.3324557543

> <CNNaffinity>
6.4618997574

> <CNN_VS>
2.1482956409

> <CNNaffinity_variance>
0.1910787523

$$$$
[H]c1c([H])c(-c2c(N([H])[H])nc(N([H])[H])nc2C([H])([H])[H])c([H])c(Cl)c1Cl


 21 22  0  0  0  0  0  0  0  0999 V2000
    8.5503   46.6478  133.2908 C   0  0  0  0  0  0  0  0  0  0  0  0
    8.7297   47.3328  131.9851 C   0  0  0  0  0  0  0  0  0  0  0  0
    8.3886   48.6441  131.8110 N   0  0  0  0  0  0  0  0  0  0  0  0
    8.5507   49.2626  130.6290 C   0  0  0  0  0  0  0  0  0  0  0  0
    8.1865   50.6488  130.4807 N   0  0  0  0  0  0  0  0  0  0  0  0
    9.0593   48.5561  129.6092 N   0  0  0  0  0  0  0  0  0  0  0  0
    9.4100   47.2483  129.7469 C   0  0  0  0  0  0  0  0  0  0  0  0
    9.9459   46.4964  128.6789 N   0  0  0  0  0  0  0  0  0  0  0  0
    9.2516   46.5962  130.9538 C   0  0  0  0  0  0  0  0  0  0  0  0
    7.2514   50.9216  130.8274 H   0  0  0  0  0  0  0  0  0  0  0  0
    8.7955   51.3696  130.0587 H   0  0  0  0  0  0  0  0  0  0  0  0
    9.2667   45.9727  128.0679 H   0  0  0  0  0  0  0  0  0  0  0  0
   10.9541   46.4209  128.4448 H   0  0  0  0  0  0  0  0  0  0  0  0
    9.6228   45.2093  131.1611 C   0  0  0  0  0  0  0  0  0  0  0  0
    8.9784   44.1140  130.6553 C   0  0  0  0  0  0  0  0  0  0  0  0
    9.4546   42.8315  130.9277 C   0  0  0  0  0  0  0  0  0  0  0  0
   10.5737   42.6617  131.7067 C   0  0  0  0  0  0  0  0  0  0  0  0
   11.2347   41.0759  132.0878 Cl  0  0  0  0  0  0  0  0  0  0  0  0
   11.2510   43.7432  132.2359 C   0  0  0  0  0  0  0  0  0  0  0  0
   12.6773   43.5776  133.2337 Cl  0  0  0  0  0  0  0  0  0  0  0  0
   10.7595   44.9942  131.9503 C   0  0  0  0  0  0  0  0  0  0  0  0
  1  2  1  0  0  0
  2  3  2  0  0  0
  3  4  1  0  0  0
  4  5  1  0  0  0
  4  6  2  0  0  0
  6  7  1  0  0  0
  7  8  1  0  0  0
  7  9  2  0  0  0
  9 14  1  0  0  0
 14 15  2  0  0  0
 15 16  1  0  0  0
 16 17  2  0  0  0
 17 18  1  0  0  0
 17 19  1  0  0  0
 19 20  1  0  0  0
 19 21  2  0  0  0
  9  2  1  0  0  0
 21 14  1  0  0  0
  5 10  1  0  0  0
  5 11  1  0  0  0
  8 12  1  0  0  0
  8 13  1  0  0  0
M  END
> <minimizedAffinity>
-5.47190

> <CNNscore>
0.3288466334

> <CNNaffinity>
6.6901483536

> <CNN_VS>
2.2000327110

> <CNNaffinity_variance>
0.5460198522

$$$$
[H]O[C@]1(c2c([H])c([H])c([H])c(Cl)c2F)c2c([H])c([H])c([H])c([H])c2[C@]([H])(N([H])C(=O)c2c([H])c([H])c3c(nc(C([H])([H])[C@@]([H])(N([H])[H])[C@@]([H])(C([H])([H])[H])C([H])([H])C([H])([H])[H])n3[H])c2[H])C1([H])[H]


 42 46  0  0  0  0  0  0  0  0999 V2000
    9.5993   48.4781  131.5716 C   0  0  0  0  0  0  0  0  0  0  0  0
    8.8648   48.2181  130.5891 O   0  0  0  0  0  0  0  0  0  0  0  0
   10.4511   47.4954  132.1472 N   0  0  0  0  0  0  0  0  0  0  0  0
   11.0470   47.7308  132.9522 H   0  0  0  0  0  0  0  0  0  0  0  0
   10.4600   46.1415  131.5670 C   0  0  0  0  0  0  0  0  0  0  0  0
    9.0478   45.6123  131.4687 C   0  0  0  0  0  0  0  0  0  0  0  0
    9.2324   44.1402  131.6756 C   0  0  0  0  0  0  0  0  0  0  0  0
    8.0729   43.6886  132.3412 O   0  0  0  0  0  0  0  0  0  0  0  0
   10.3331   44.0501  132.6457 C   0  0  0  0  0  0  0  0  0  0  0  0
   10.7223   43.0478  133.5436 C   0  0  0  0  0  0  0  0  0  0  0  0
   11.8117   43.2425  134.3401 C   0  0  0  0  0  0  0  0  0  0  0  0
   12.5508   44.4237  134.2802 C   0  0  0  0  0  0  0  0  0  0  0  0
   12.1606   45.4024  133.3951 C   0  0  0  0  0  0  0  0  0  0  0  0
   11.0583   45.2029  132.5907 C   0  0  0  0  0  0  0  0  0  0  0  0
    8.3783   42.9342  132.9170 H   0  0  0  0  0  0  0  0  0  0  0  0
    9.3950   43.3729  130.4519 C   0  0  0  0  0  0  0  0  0  0  0  0
    9.7548   42.0522  130.5172 C   0  0  0  0  0  0  0  0  0  0  0  0
    9.9395   41.2753  129.3799 C   0  0  0  0  0  0  0  0  0  0  0  0
    9.7479   41.8779  128.1610 C   0  0  0  0  0  0  0  0  0  0  0  0
    9.3812   43.2194  128.0561 C   0  0  0  0  0  0  0  0  0  0  0  0
    9.1278   44.0148  126.5203 Cl  0  0  0  0  0  0  0  0  0  0  0  0
    9.2102   43.9489  129.2251 C   0  0  0  0  0  0  0  0  0  0  0  0
    8.8478   45.2388  129.1546 F   0  0  0  0  0  0  0  0  0  0  0  0
   11.0528   53.1911  134.8317 C   0  0  0  0  0  0  0  0  0  0  0  0
   11.4180   51.9281  134.5879 N   0  0  0  0  0  0  0  0  0  0  0  0
   10.6244   51.3469  133.6696 C   0  0  0  0  0  0  0  0  0  0  0  0
   10.5563   50.1220  133.0835 C   0  0  0  0  0  0  0  0  0  0  0  0
    9.5888   49.8177  132.1452 C   0  0  0  0  0  0  0  0  0  0  0  0
    8.6829   50.7755  131.8031 C   0  0  0  0  0  0  0  0  0  0  0  0
    8.7412   52.0145  132.3866 C   0  0  0  0  0  0  0  0  0  0  0  0
    9.7025   52.3246  133.3224 C   0  0  0  0  0  0  0  0  0  0  0  0
    9.9827   53.4241  134.0355 N   0  0  0  0  0  0  0  0  0  0  0  0
    9.4836   54.3485  134.0197 H   0  0  0  0  0  0  0  0  0  0  0  0
   11.6504   54.1754  135.7717 C   0  0  0  0  0  0  0  0  0  0  0  0
   12.6784   54.9802  134.9918 C   0  0  0  0  0  0  0  0  0  0  0  0
   13.6143   55.5989  135.8848 N   0  0  0  0  0  0  0  0  0  0  0  0
   13.7278   55.0561  136.7654 H   0  0  0  0  0  0  0  0  0  0  0  0
   13.3993   56.5901  136.1012 H   0  0  0  0  0  0  0  0  0  0  0  0
   13.3079   54.1646  133.9084 C   0  0  0  0  0  0  0  0  0  0  0  0
   13.7394   55.0631  132.7542 C   0  0  0  0  0  0  0  0  0  0  0  0
   15.3834   52.8789  133.3187 C   0  0  0  0  0  0  0  0  0  0  0  0
   14.4638   53.3523  134.3954 C   0  0  0  0  0  0  0  0  0  0  0  0
 41 42  1  0  0  0
 42 39  1  0  0  0
 39 40  1  0  0  0
 39 35  1  0  0  0
 35 36  1  0  0  0
 35 34  1  0  0  0
 34 24  1  0  0  0
 24 25  2  0  0  0
 25 26  1  0  0  0
 26 27  2  0  0  0
 27 28  1  0  0  0
 28 29  2  0  0  0
 29 30  1  0  0  0
 30 31  2  0  0  0
 31 32  1  0  0  0
 28  1  1  0  0  0
  1  2  2  0  0  0
  1  3  1  0  0  0
  3  5  1  0  0  0
  5  6  1  0  0  0
  6  7  1  0  0  0
  7  8  1  0  0  0
  7  9  1  0  0  0
  9 10  2  0  0  0
 10 11  1  0  0  0
 11 12  2  0  0  0
 12 13  1  0  0  0
 13 14  2  0  0  0
  7 16  1  0  0  0
 16 17  2  0  0  0
 17 18  1  0  0  0
 18 19  2  0  0  0
 19 20  1  0  0  0
 20 21  1  0  0  0
 20 22  2  0  0  0
 22 23  1  0  0  0
 32 24  1  0  0  0
 14  5  1  0  0  0
 22 16  1  0  0  0
 31 26  1  0  0  0
 14  9  1  0  0  0
 36 37  1  0  0  0
 36 38  1  0  0  0
 32 33  1  0  0  0
  3  4  1  0  0  0
  8 15  1  0  0  0
M  END
> <minimizedAffinity>
31.30626

> <CNNscore>
0.4976447225

> <CNNaffinity>
7.5212593079

> <CNN_VS>
3.7429149151

> <CNNaffinity_variance>
0.9399366379

$$$$
[H]O[C@]1(c2c([H])c([H])c([H])c(Cl)c2F)c2c([H])c([H])c([H])c([H])c2[C@]([H])(N([H])C(=O)c2c([H])c([H])c3c(nc(C([H])([H])[C@@]([H])(N([H])[H])[C@@]([H])(C([H])([H])[H])C([H])([H])C([H])([H])[H])n3[H])c2[H])C1([H])[H]


 42 46  0  0  0  0  0  0  0  0999 V2000
   10.4286   44.5299  131.7174 C   0  0  0  0  0  0  0  0  0  0  0  0
    9.7971   44.6154  132.7973 O   0  0  0  0  0  0  0  0  0  0  0  0
   11.3119   45.5577  131.2861 N   0  0  0  0  0  0  0  0  0  0  0  0
   11.8216   45.4663  130.3971 H   0  0  0  0  0  0  0  0  0  0  0  0
   11.4787   46.7484  132.1372 C   0  0  0  0  0  0  0  0  0  0  0  0
   11.0654   46.4314  133.5558 C   0  0  0  0  0  0  0  0  0  0  0  0
   10.5145   47.7381  134.0384 C   0  0  0  0  0  0  0  0  0  0  0  0
    9.4785   47.4181  134.9417 O   0  0  0  0  0  0  0  0  0  0  0  0
    9.8696   48.3156  132.8503 C   0  0  0  0  0  0  0  0  0  0  0  0
    8.8595   49.2735  132.6944 C   0  0  0  0  0  0  0  0  0  0  0  0
    8.4512   49.6247  131.4417 C   0  0  0  0  0  0  0  0  0  0  0  0
    9.0202   49.0479  130.3065 C   0  0  0  0  0  0  0  0  0  0  0  0
   10.0116   48.1078  130.4698 C   0  0  0  0  0  0  0  0  0  0  0  0
   10.4226   47.7546  131.7380 C   0  0  0  0  0  0  0  0  0  0  0  0
    8.8141   48.1558  134.8505 H   0  0  0  0  0  0  0  0  0  0  0  0
   11.4786   48.5872  134.7181 C   0  0  0  0  0  0  0  0  0  0  0  0
   12.3591   48.0389  135.6135 C   0  0  0  0  0  0  0  0  0  0  0  0
   13.2911   48.8049  136.3034 C   0  0  0  0  0  0  0  0  0  0  0  0
   13.3081   50.1561  136.0595 C   0  0  0  0  0  0  0  0  0  0  0  0
   12.4275   50.7488  135.1550 C   0  0  0  0  0  0  0  0  0  0  0  0
   12.4253   52.4647  134.8211 Cl  0  0  0  0  0  0  0  0  0  0  0  0
   11.5167   49.9359  134.4933 C   0  0  0  0  0  0  0  0  0  0  0  0
   10.6642   50.4775  133.6102 F   0  0  0  0  0  0  0  0  0  0  0  0
    9.7016   41.0985  126.9582 C   0  0  0  0  0  0  0  0  0  0  0  0
    9.8245   42.3793  127.3221 N   0  0  0  0  0  0  0  0  0  0  0  0
    9.9756   42.5082  128.6531 C   0  0  0  0  0  0  0  0  0  0  0  0
   10.1327   43.5484  129.5144 C   0  0  0  0  0  0  0  0  0  0  0  0
   10.2619   43.3519  130.8759 C   0  0  0  0  0  0  0  0  0  0  0  0
   10.2304   42.0795  131.3607 C   0  0  0  0  0  0  0  0  0  0  0  0
   10.0728   41.0222  130.5026 C   0  0  0  0  0  0  0  0  0  0  0  0
    9.9433   41.2107  129.1447 C   0  0  0  0  0  0  0  0  0  0  0  0
    9.7779   40.3821  128.1045 N   0  0  0  0  0  0  0  0  0  0  0  0
    9.7107   39.3336  128.1186 H   0  0  0  0  0  0  0  0  0  0  0  0
    9.5109   40.5234  125.6009 C   0  0  0  0  0  0  0  0  0  0  0  0
    9.6533   39.0143  125.7240 C   0  0  0  0  0  0  0  0  0  0  0  0
    8.4225   38.3640  125.3798 N   0  0  0  0  0  0  0  0  0  0  0  0
    7.8640   38.9233  124.7030 H   0  0  0  0  0  0  0  0  0  0  0  0
    7.8389   38.1053  126.1971 H   0  0  0  0  0  0  0  0  0  0  0  0
   10.8456   38.5120  124.9749 C   0  0  0  0  0  0  0  0  0  0  0  0
   10.6704   38.7549  123.4795 C   0  0  0  0  0  0  0  0  0  0  0  0
   13.0086   38.1792  126.2074 C   0  0  0  0  0  0  0  0  0  0  0  0
   12.1251   39.1176  125.4538 C   0  0  0  0  0  0  0  0  0  0  0  0
 41 42  1  0  0  0
 42 39  1  0  0  0
 39 40  1  0  0  0
 39 35  1  0  0  0
 35 36  1  0  0  0
 35 34  1  0  0  0
 34 24  1  0  0  0
 24 25  2  0  0  0
 25 26  1  0  0  0
 26 27  2  0  0  0
 27 28  1  0  0  0
 28 29  2  0  0  0
 29 30  1  0  0  0
 30 31  2  0  0  0
 31 32  1  0  0  0
 28  1  1  0  0  0
  1  2  2  0  0  0
  1  3  1  0  0  0
  3  5  1  0  0  0
  5  6  1  0  0  0
  6  7  1  0  0  0
  7  8  1  0  0  0
  7  9  1  0  0  0
  9 10  2  0  0  0
 10 11  1  0  0  0
 11 12  2  0  0  0
 12 13  1  0  0  0
 13 14  2  0  0  0
  7 16  1  0  0  0
 16 17  2  0  0  0
 17 18  1  0  0  0
 18 19  2  0  0  0
 19 20  1  0  0  0
 20 21  1  0  0  0
 20 22  2  0  0  0
 22 23  1  0  0  0
 32 24  1  0  0  0
 14  5  1  0  0  0
 22 16  1  0  0  0
 31 26  1  0  0  0
 14  9  1  0  0  0
 36 37  1  0  0  0
 36 38  1  0  0  0
 32 33  1  0  0  0
  3  4  1  0  0  0
  8 15  1  0  0  0
M  END
> <minimizedAffinity>
38.19429

> <CNNscore>
0.3867852390

> <CNNaffinity>
7.1649332047

> <CNN_VS>
2.7712903023

> <CNNaffinity_variance>
0.8872526288

$$$$
[H]O[C@]1(c2c([H])c([H])c([H])c(Cl)c2F)c2c([H])c([H])c([H])c([H])c2[C@]([H])(N([H])C(=O)c2c([H])c([H])c3c(nc(C([H])([H])[C@@]([H])(N([H])[H])[C@@]([H])(C([H])([H])[H])C([H])([H])C([H])([H])[H])n3[H])c2[H])C1([H])[H]


 42 46  0  0  0  0  0  0  0  0999 V2000
    8.0861   48.8486  130.7257 C   0  0  0  0  0  0  0  0  0  0  0  0
    8.1155   49.3030  131.8941 O   0  0  0  0  0  0  0  0  0  0  0  0
    8.4271   47.4975  130.4418 N   0  0  0  0  0  0  0  0  0  0  0  0
    8.3945   47.1449  129.4758 H   0  0  0  0  0  0  0  0  0  0  0  0
    8.8253   46.6206  131.5564 C   0  0  0  0  0  0  0  0  0  0  0  0
   10.2121   46.9872  132.0321 C   0  0  0  0  0  0  0  0  0  0  0  0
   10.7663   45.6693  132.4792 C   0  0  0  0  0  0  0  0  0  0  0  0
   12.1514   45.7149  132.2130 O   0  0  0  0  0  0  0  0  0  0  0  0
   10.1909   44.7001  131.5355 C   0  0  0  0  0  0  0  0  0  0  0  0
   10.5892   43.4174  131.1373 C   0  0  0  0  0  0  0  0  0  0  0  0
    9.8433   42.7336  130.2233 C   0  0  0  0  0  0  0  0  0  0  0  0
    8.6869   43.2861  129.6734 C   0  0  0  0  0  0  0  0  0  0  0  0
    8.3040   44.5467  130.0707 C   0  0  0  0  0  0  0  0  0  0  0  0
    9.0601   45.2361  130.9953 C   0  0  0  0  0  0  0  0  0  0  0  0
   12.4086   44.7752  132.0010 H   0  0  0  0  0  0  0  0  0  0  0  0
   10.5730   45.3790  133.8902 C   0  0  0  0  0  0  0  0  0  0  0  0
    9.6800   46.1165  134.6227 C   0  0  0  0  0  0  0  0  0  0  0  0
    9.4666   45.8933  135.9776 C   0  0  0  0  0  0  0  0  0  0  0  0
   10.1895   44.8919  136.5779 C   0  0  0  0  0  0  0  0  0  0  0  0
   11.1065   44.1208  135.8641 C   0  0  0  0  0  0  0  0  0  0  0  0
   12.0400   42.8382  136.5982 Cl  0  0  0  0  0  0  0  0  0  0  0  0
   11.2800   44.3871  134.5124 C   0  0  0  0  0  0  0  0  0  0  0  0
   12.1483   43.6545  133.7985 F   0  0  0  0  0  0  0  0  0  0  0  0
    6.8430   53.6975  127.5800 C   0  0  0  0  0  0  0  0  0  0  0  0
    7.2463   53.3060  128.7932 N   0  0  0  0  0  0  0  0  0  0  0  0
    7.3450   51.9666  128.8789 C   0  0  0  0  0  0  0  0  0  0  0  0
    7.6949   51.0807  129.8491 C   0  0  0  0  0  0  0  0  0  0  0  0
    7.6930   49.7175  129.6239 C   0  0  0  0  0  0  0  0  0  0  0  0
    7.3304   49.2565  128.3947 C   0  0  0  0  0  0  0  0  0  0  0  0
    6.9759   50.1396  127.4080 C   0  0  0  0  0  0  0  0  0  0  0  0
    6.9753   51.4993  127.6254 C   0  0  0  0  0  0  0  0  0  0  0  0
    6.6785   52.5607  126.8631 N   0  0  0  0  0  0  0  0  0  0  0  0
    6.3624   52.5679  125.8611 H   0  0  0  0  0  0  0  0  0  0  0  0
    6.6008   55.0728  127.0707 C   0  0  0  0  0  0  0  0  0  0  0  0
    7.6930   55.3798  126.0578 C   0  0  0  0  0  0  0  0  0  0  0  0
    8.7661   54.4361  126.1749 N   0  0  0  0  0  0  0  0  0  0  0  0
    8.4374   53.5172  126.5361 H   0  0  0  0  0  0  0  0  0  0  0  0
    9.5673   54.7758  126.7390 H   0  0  0  0  0  0  0  0  0  0  0  0
    7.1387   55.5136  124.6757 C   0  0  0  0  0  0  0  0  0  0  0  0
    7.6254   54.3652  123.7983 C   0  0  0  0  0  0  0  0  0  0  0  0
    4.9970   54.6953  123.6501 C   0  0  0  0  0  0  0  0  0  0  0  0
    5.6462   55.5860  124.6572 C   0  0  0  0  0  0  0  0  0  0  0  0
 41 42  1  0  0  0
 42 39  1  0  0  0
 39 40  1  0  0  0
 39 35  1  0  0  0
 35 36  1  0  0  0
 35 34  1  0  0  0
 34 24  1  0  0  0
 24 25  2  0  0  0
 25 26  1  0  0  0
 26 27  2  0  0  0
 27 28  1  0  0  0
 28 29  2  0  0  0
 29 30  1  0  0  0
 30 31  2  0  0  0
 31 32  1  0  0  0
 28  1  1  0  0  0
  1  2  2  0  0  0
  1  3  1  0  0  0
  3  5  1  0  0  0
  5  6  1  0  0  0
  6  7  1  0  0  0
  7  8  1  0  0  0
  7  9  1  0  0  0
  9 10  2  0  0  0
 10 11  1  0  0  0
 11 12  2  0  0  0
 12 13  1  0  0  0
 13 14  2  0  0  0
  7 16  1  0  0  0
 16 17  2  0  0  0
 17 18  1  0  0  0
 18 19  2  0  0  0
 19 20  1  0  0  0
 20 21  1  0  0  0
 20 22  2  0  0  0
 22 23  1  0  0  0
 32 24  1  0  0  0
 14  5  1  0  0  0
 22 16  1  0  0  0
 31 26  1  0  0  0
 14  9  1  0  0  0
 36 37  1  0  0  0
 36 38  1  0  0  0
 32 33  1  0  0  0
  3  4  1  0  0  0
  8 15  1  0  0  0
M  END
> <minimizedAffinity>
5.85180

> <CNNscore>
0.3474960625

> <CNNaffinity>
7.2760992050

> <CNN_VS>
2.5284159184

> <CNNaffinity_variance>
0.5172874928

$$$$
[H]O[C@]1(c2c([H])c([H])c([H])c(Cl)c2F)c2c([H])c([H])c([H])c([H])c2[C@]([H])(N([H])C(=O)c2c([H])c([H])c3c(nc(C([H])([H])[C@@]([H])(N([H])[H])[C@@]([H])(C([H])([H])[H])C([H])([H])C([H])([H])[H])n3[H])c2[H])C1([H])[H]


 42 46  0  0  0  0  0  0  0  0999 V2000
    7.8636   50.4274  128.9296 C   0  0  0  0  0  0  0  0  0  0  0  0
    7.7623   49.3629  128.2747 O   0  0  0  0  0  0  0  0  0  0  0  0
    8.3044   50.4325  130.2817 N   0  0  0  0  0  0  0  0  0  0  0  0
    8.3819   51.3178  130.8001 H   0  0  0  0  0  0  0  0  0  0  0  0
    8.6454   49.1485  130.9180 C   0  0  0  0  0  0  0  0  0  0  0  0
    9.9444   48.6211  130.3537 C   0  0  0  0  0  0  0  0  0  0  0  0
    9.7494   47.1369  130.4094 C   0  0  0  0  0  0  0  0  0  0  0  0
   10.4481   46.6072  129.3037 O   0  0  0  0  0  0  0  0  0  0  0  0
    8.3186   46.9528  130.1270 C   0  0  0  0  0  0  0  0  0  0  0  0
    7.5832   45.8635  129.6424 C   0  0  0  0  0  0  0  0  0  0  0  0
    6.2349   45.9809  129.4766 C   0  0  0  0  0  0  0  0  0  0  0  0
    5.5686   47.1679  129.7804 C   0  0  0  0  0  0  0  0  0  0  0  0
    6.2997   48.2324  130.2557 C   0  0  0  0  0  0  0  0  0  0  0  0
    7.6633   48.1108  130.4225 C   0  0  0  0  0  0  0  0  0  0  0  0
    9.9331   45.7980  129.0314 H   0  0  0  0  0  0  0  0  0  0  0  0
   10.2478   46.5062  131.6204 C   0  0  0  0  0  0  0  0  0  0  0  0
   11.3826   45.7395  131.5731 C   0  0  0  0  0  0  0  0  0  0  0  0
   11.8951   45.1006  132.6958 C   0  0  0  0  0  0  0  0  0  0  0  0
   11.2205   45.2609  133.8811 C   0  0  0  0  0  0  0  0  0  0  0  0
   10.0629   46.0339  133.9670 C   0  0  0  0  0  0  0  0  0  0  0  0
    9.1829   46.2591  135.4604 Cl  0  0  0  0  0  0  0  0  0  0  0  0
    9.5950   46.6498  132.8138 C   0  0  0  0  0  0  0  0  0  0  0  0
    8.4893   47.4076  132.8689 F   0  0  0  0  0  0  0  0  0  0  0  0
    7.3513   54.7248  124.9019 C   0  0  0  0  0  0  0  0  0  0  0  0
    7.8333   53.4882  125.0646 N   0  0  0  0  0  0  0  0  0  0  0  0
    7.6131   53.0258  126.3091 C   0  0  0  0  0  0  0  0  0  0  0  0
    7.8899   51.8753  126.9786 C   0  0  0  0  0  0  0  0  0  0  0  0
    7.5250   51.6968  128.2992 C   0  0  0  0  0  0  0  0  0  0  0  0
    6.8705   52.7044  128.9406 C   0  0  0  0  0  0  0  0  0  0  0  0
    6.5853   53.8691  128.2764 C   0  0  0  0  0  0  0  0  0  0  0  0
    6.9461   54.0539  126.9605 C   0  0  0  0  0  0  0  0  0  0  0  0
    6.8011   55.0639  126.0916 N   0  0  0  0  0  0  0  0  0  0  0  0
    6.3418   55.9948  126.2544 H   0  0  0  0  0  0  0  0  0  0  0  0
    7.3894   55.5953  123.6976 C   0  0  0  0  0  0  0  0  0  0  0  0
    6.8340   54.7861  122.5359 C   0  0  0  0  0  0  0  0  0  0  0  0
    7.7912   53.8119  122.0993 N   0  0  0  0  0  0  0  0  0  0  0  0
    8.4223   53.5146  122.8715 H   0  0  0  0  0  0  0  0  0  0  0  0
    8.3486   54.1072  121.2761 H   0  0  0  0  0  0  0  0  0  0  0  0
    5.4849   54.2249  122.8525 C   0  0  0  0  0  0  0  0  0  0  0  0
    4.6013   55.2972  123.4813 C   0  0  0  0  0  0  0  0  0  0  0  0
    3.3824   53.2596  121.8748 C   0  0  0  0  0  0  0  0  0  0  0  0
    4.8120   53.6313  121.6576 C   0  0  0  0  0  0  0  0  0  0  0  0
 41 42  1  0  0  0
 42 39  1  0  0  0
 39 40  1  0  0  0
 39 35  1  0  0  0
 35 36  1  0  0  0
 35 34  1  0  0  0
 34 24  1  0  0  0
 24 25  2  0  0  0
 25 26  1  0  0  0
 26 27  2  0  0  0
 27 28  1  0  0  0
 28 29  2  0  0  0
 29 30  1  0  0  0
 30 31  2  0  0  0
 31 32  1  0  0  0
 28  1  1  0  0  0
  1  2  2  0  0  0
  1  3  1  0  0  0
  3  5  1  0  0  0
  5  6  1  0  0  0
  6  7  1  0  0  0
  7  8  1  0  0  0
  7  9  1  0  0  0
  9 10  2  0  0  0
 10 11  1  0  0  0
 11 12  2  0  0  0
 12 13  1  0  0  0
 13 14  2  0  0  0
  7 16  1  0  0  0
 16 17  2  0  0  0
 17 18  1  0  0  0
 18 19  2  0  0  0
 19 20  1  0  0  0
 20 21  1  0  0  0
 20 22  2  0  0  0
 22 23  1  0  0  0
 32 24  1  0  0  0
 14  5  1  0  0  0
 22 16  1  0  0  0
 31 26  1  0  0  0
 14  9  1  0  0  0
 36 37  1  0  0  0
 36 38  1  0  0  0
 32 33  1  0  0  0
  3  4  1  0  0  0
  8 15  1  0  0  0
M  END
> <minimizedAffinity>
5.23166

> <CNNscore>
0.3377768695

> <CNNaffinity>
7.0330171585

> <CNN_VS>
2.3755905628

> <CNNaffinity_variance>
0.9462044835

$$$$
[H]O[C@]1(c2c([H])c([H])c([H])c(Cl)c2F)c2c([H])c([H])c([H])c([H])c2[C@]([H])(N([H])C(=O)c2c([H])c([H])c3c(nc(C([H])([H])[C@@]([H])(N([H])[H])[C@@]([H])(C([H])([H])[H])C([H])([H])C([H])([H])[H])n3[H])c2[H])C1([H])[H]


 42 46  0  0  0  0  0  0  0  0999 V2000
    7.4314   47.1320  130.3062 C   0  0  0  0  0  0  0  0  0  0  0  0
    8.5133   47.7654  130.2757 O   0  0  0  0  0  0  0  0  0  0  0  0
    7.3402   45.8387  130.8906 N   0  0  0  0  0  0  0  0  0  0  0  0
    6.4419   45.3374  130.9064 H   0  0  0  0  0  0  0  0  0  0  0  0
    8.5545   45.2381  131.4691 C   0  0  0  0  0  0  0  0  0  0  0  0
    9.4215   46.3138  132.0814 C   0  0  0  0  0  0  0  0  0  0  0  0
   10.8059   45.7836  131.8658 C   0  0  0  0  0  0  0  0  0  0  0  0
   11.6325   46.9109  131.6725 O   0  0  0  0  0  0  0  0  0  0  0  0
   10.7279   45.0952  130.5694 C   0  0  0  0  0  0  0  0  0  0  0  0
   11.7004   44.7509  129.6218 C   0  0  0  0  0  0  0  0  0  0  0  0
   11.3305   44.0986  128.4830 C   0  0  0  0  0  0  0  0  0  0  0  0
    9.9984   43.7650  128.2397 C   0  0  0  0  0  0  0  0  0  0  0  0
    9.0504   44.1075  129.1764 C   0  0  0  0  0  0  0  0  0  0  0  0
    9.4273   44.7673  130.3273 C   0  0  0  0  0  0  0  0  0  0  0  0
   12.3481   46.6072  131.0481 H   0  0  0  0  0  0  0  0  0  0  0  0
   11.3342   45.0036  132.9726 C   0  0  0  0  0  0  0  0  0  0  0  0
   12.3905   44.1552  132.7667 C   0  0  0  0  0  0  0  0  0  0  0  0
   12.9256   43.3742  133.7840 C   0  0  0  0  0  0  0  0  0  0  0  0
   12.3565   43.4765  135.0295 C   0  0  0  0  0  0  0  0  0  0  0  0
   11.2809   44.3293  135.2761 C   0  0  0  0  0  0  0  0  0  0  0  0
   10.5360   44.4836  136.8499 Cl  0  0  0  0  0  0  0  0  0  0  0  0
   10.7858   45.0867  134.2229 C   0  0  0  0  0  0  0  0  0  0  0  0
    9.7581   45.9231  134.4335 F   0  0  0  0  0  0  0  0  0  0  0  0
    3.5771   51.1303  128.2786 C   0  0  0  0  0  0  0  0  0  0  0  0
    4.7961   51.0241  128.8176 N   0  0  0  0  0  0  0  0  0  0  0  0
    5.1213   49.7426  129.0692 C   0  0  0  0  0  0  0  0  0  0  0  0
    6.1983   49.1016  129.5960 C   0  0  0  0  0  0  0  0  0  0  0  0
    6.2311   47.7271  129.7327 C   0  0  0  0  0  0  0  0  0  0  0  0
    5.1524   47.0017  129.3262 C   0  0  0  0  0  0  0  0  0  0  0  0
    4.0606   47.6363  128.7931 C   0  0  0  0  0  0  0  0  0  0  0  0
    4.0209   49.0057  128.6541 C   0  0  0  0  0  0  0  0  0  0  0  0
    3.1065   49.8644  128.1824 N   0  0  0  0  0  0  0  0  0  0  0  0
    2.1574   49.6451  127.7887 H   0  0  0  0  0  0  0  0  0  0  0  0
    2.8394   52.3514  127.8612 C   0  0  0  0  0  0  0  0  0  0  0  0
    2.1544   52.0376  126.5401 C   0  0  0  0  0  0  0  0  0  0  0  0
    1.0386   51.1615  126.7486 N   0  0  0  0  0  0  0  0  0  0  0  0
    0.6264   51.2768  127.6972 H   0  0  0  0  0  0  0  0  0  0  0  0
    1.2476   50.1617  126.5690 H   0  0  0  0  0  0  0  0  0  0  0  0
    1.8257   53.2836  125.7821 C   0  0  0  0  0  0  0  0  0  0  0  0
    1.3584   54.3757  126.7385 C   0  0  0  0  0  0  0  0  0  0  0  0
    2.9869   53.2473  123.5552 C   0  0  0  0  0  0  0  0  0  0  0  0
    2.9685   53.7727  124.9526 C   0  0  0  0  0  0  0  0  0  0  0  0
 41 42  1  0  0  0
 42 39  1  0  0  0
 39 40  1  0  0  0
 39 35  1  0  0  0
 35 36  1  0  0  0
 35 34  1  0  0  0
 34 24  1  0  0  0
 24 25  2  0  0  0
 25 26  1  0  0  0
 26 27  2  0  0  0
 27 28  1  0  0  0
 28 29  2  0  0  0
 29 30  1  0  0  0
 30 31  2  0  0  0
 31 32  1  0  0  0
 28  1  1  0  0  0
  1  2  2  0  0  0
  1  3  1  0  0  0
  3  5  1  0  0  0
  5  6  1  0  0  0
  6  7  1  0  0  0
  7  8  1  0  0  0
  7  9  1  0  0  0
  9 10  2  0  0  0
 10 11  1  0  0  0
 11 12  2  0  0  0
 12 13  1  0  0  0
 13 14  2  0  0  0
  7 16  1  0  0  0
 16 17  2  0  0  0
 17 18  1  0  0  0
 18 19  2  0  0  0
 19 20  1  0  0  0
 20 21  1  0  0  0
 20 22  2  0  0  0
 22 23  1  0  0  0
 32 24  1  0  0  0
 14  5  1  0  0  0
 22 16  1  0  0  0
 31 26  1  0  0  0
 14  9  1  0  0  0
 36 37  1  0  0  0
 36 38  1  0  0  0
 32 33  1  0  0  0
  3  4  1  0  0  0
  8 15  1  0  0  0
M  END
> <minimizedAffinity>
13.86661

> <CNNscore>
0.3289555907

> <CNNaffinity>
7.2230749130

> <CNN_VS>
2.3760709763

> <CNNaffinity_variance>
0.4490317702

$$$$
[H]O[C@]1(c2c([H])c([H])c([H])c(Cl)c2F)c2c([H])c([H])c([H])c([H])c2[C@]([H])(N([H])C(=O)c2c([H])c([H])c3c(nc(C([H])([H])[C@@]([H])(N([H])[H])[C@@]([H])(C([H])([H])[H])C([H])([H])C([H])([H])[H])n3[H])c2[H])C1([H])[H]


 42 46  0  0  0  0  0  0  0  0999 V2000
    7.6199   48.1096  130.4252 C   0  0  0  0  0  0  0  0  0  0  0  0
    6.9141   47.3599  131.1408 O   0  0  0  0  0  0  0  0  0  0  0  0
    9.0104   47.8739  130.2423 N   0  0  0  0  0  0  0  0  0  0  0  0
    9.5706   48.5009  129.6493 H   0  0  0  0  0  0  0  0  0  0  0  0
    9.6255   46.7183  130.9175 C   0  0  0  0  0  0  0  0  0  0  0  0
    8.6271   45.5884  131.0200 C   0  0  0  0  0  0  0  0  0  0  0  0
    9.0135   44.9227  132.3051 C   0  0  0  0  0  0  0  0  0  0  0  0
    7.8170   44.4281  132.8666 O   0  0  0  0  0  0  0  0  0  0  0  0
    9.4517   46.0314  133.1651 C   0  0  0  0  0  0  0  0  0  0  0  0
    9.5470   46.1684  134.5560 C   0  0  0  0  0  0  0  0  0  0  0  0
    9.9988   47.3395  135.0884 C   0  0  0  0  0  0  0  0  0  0  0  0
   10.3699   48.4095  134.2745 C   0  0  0  0  0  0  0  0  0  0  0  0
   10.2726   48.2654  132.9095 C   0  0  0  0  0  0  0  0  0  0  0  0
    9.8153   47.0798  132.3736 C   0  0  0  0  0  0  0  0  0  0  0  0
    7.9501   44.4784  133.8534 H   0  0  0  0  0  0  0  0  0  0  0  0
    9.9491   43.8202  132.1580 C   0  0  0  0  0  0  0  0  0  0  0  0
   11.1664   43.8697  132.7853 C   0  0  0  0  0  0  0  0  0  0  0  0
   12.1053   42.8520  132.6670 C   0  0  0  0  0  0  0  0  0  0  0  0
   11.7750   41.7705  131.8880 C   0  0  0  0  0  0  0  0  0  0  0  0
   10.5456   41.6856  131.2352 C   0  0  0  0  0  0  0  0  0  0  0  0
   10.0944   40.3222  130.2387 Cl  0  0  0  0  0  0  0  0  0  0  0  0
    9.6449   42.7313  131.3881 C   0  0  0  0  0  0  0  0  0  0  0  0
    8.4506   42.6720  130.7796 F   0  0  0  0  0  0  0  0  0  0  0  0
    6.9518   53.3557  127.7824 C   0  0  0  0  0  0  0  0  0  0  0  0
    7.8787   52.5700  128.3404 N   0  0  0  0  0  0  0  0  0  0  0  0
    7.3515   51.4151  128.7870 C   0  0  0  0  0  0  0  0  0  0  0  0
    7.8326   50.3085  129.4135 C   0  0  0  0  0  0  0  0  0  0  0  0
    7.0103   49.2532  129.7586 C   0  0  0  0  0  0  0  0  0  0  0  0
    5.6838   49.3304  129.4596 C   0  0  0  0  0  0  0  0  0  0  0  0
    5.1867   50.4407  128.8278 C   0  0  0  0  0  0  0  0  0  0  0  0
    6.0002   51.4961  128.4811 C   0  0  0  0  0  0  0  0  0  0  0  0
    5.7863   52.6731  127.8771 N   0  0  0  0  0  0  0  0  0  0  0  0
    4.8780   53.0571  127.5144 H   0  0  0  0  0  0  0  0  0  0  0  0
    7.1065   54.7049  127.1780 C   0  0  0  0  0  0  0  0  0  0  0  0
    6.6059   54.6194  125.7444 C   0  0  0  0  0  0  0  0  0  0  0  0
    5.2866   55.1713  125.6394 N   0  0  0  0  0  0  0  0  0  0  0  0
    5.1136   55.9032  126.3586 H   0  0  0  0  0  0  0  0  0  0  0  0
    4.5297   54.4627  125.6615 H   0  0  0  0  0  0  0  0  0  0  0  0
    7.5935   55.1973  124.7822 C   0  0  0  0  0  0  0  0  0  0  0  0
    9.0099   54.7829  125.1667 C   0  0  0  0  0  0  0  0  0  0  0  0
    7.4973   53.3695  123.0623 C   0  0  0  0  0  0  0  0  0  0  0  0
    7.3075   54.8191  123.3651 C   0  0  0  0  0  0  0  0  0  0  0  0
 41 42  1  0  0  0
 42 39  1  0  0  0
 39 40  1  0  0  0
 39 35  1  0  0  0
 35 36  1  0  0  0
 35 34  1  0  0  0
 34 24  1  0  0  0
 24 25  2  0  0  0
 25 26  1  0  0  0
 26 27  2  0  0  0
 27 28  1  0  0  0
 28 29  2  0  0  0
 29 30  1  0  0  0
 30 31  2  0  0  0
 31 32  1  0  0  0
 28  1  1  0  0  0
  1  2  2  0  0  0
  1  3  1  0  0  0
  3  5  1  0  0  0
  5  6  1  0  0  0
  6  7  1  0  0  0
  7  8  1  0  0  0
  7  9  1  0  0  0
  9 10  2  0  0  0
 10 11  1  0  0  0
 11 12  2  0  0  0
 12 13  1  0  0  0
 13 14  2  0  0  0
  7 16  1  0  0  0
 16 17  2  0  0  0
 17 18  1  0  0  0
 18 19  2  0  0  0
 19 20  1  0  0  0
 20 21  1  0  0  0
 20 22  2  0  0  0
 22 23  1  0  0  0
 32 24  1  0  0  0
 14  5  1  0  0  0
 22 16  1  0  0  0
 31 26  1  0  0  0
 14  9  1  0  0  0
 36 37  1  0  0  0
 36 38  1  0  0  0
 32 33  1  0  0  0
  3  4  1  0  0  0
  8 15  1  0  0  0
M  END
> <minimizedAffinity>
8.21937

> <CNNscore>
0.3254299760

> <CNNaffinity>
7.1994032860

> <CNN_VS>
2.3429017067

> <CNNaffinity_variance>
0.5011291504

$$$$
[H]O[C@]1(c2c([H])c([H])c([H])c(Cl)c2F)c2c([H])c([H])c([H])c([H])c2[C@]([H])(N([H])C(=O)c2c([H])c([H])c3c(nc(C([H])([H])[C@@]([H])(N([H])[H])[C@@]([H])(C([H])([H])[H])C([H])([H])C([H])([H])[H])n3[H])c2[H])C1([H])[H]


 42 46  0  0  0  0  0  0  0  0999 V2000
    7.6392   48.4163  130.2139 C   0  0  0  0  0  0  0  0  0  0  0  0
    6.7935   47.4934  130.1387 O   0  0  0  0  0  0  0  0  0  0  0  0
    8.9541   48.1852  130.7038 N   0  0  0  0  0  0  0  0  0  0  0  0
    9.6329   48.9566  130.7555 H   0  0  0  0  0  0  0  0  0  0  0  0
    9.3188   46.8240  131.1326 C   0  0  0  0  0  0  0  0  0  0  0  0
   10.4988   46.8779  132.0752 C   0  0  0  0  0  0  0  0  0  0  0  0
   11.2190   45.5992  131.7751 C   0  0  0  0  0  0  0  0  0  0  0  0
   12.5916   45.8681  131.9627 O   0  0  0  0  0  0  0  0  0  0  0  0
   11.0239   45.4087  130.3307 C   0  0  0  0  0  0  0  0  0  0  0  0
   11.7347   44.6794  129.3688 C   0  0  0  0  0  0  0  0  0  0  0  0
   11.3129   44.6840  128.0722 C   0  0  0  0  0  0  0  0  0  0  0  0
   10.1835   45.4027  127.6807 C   0  0  0  0  0  0  0  0  0  0  0  0
    9.4921   46.1161  128.6328 C   0  0  0  0  0  0  0  0  0  0  0  0
    9.9210   46.1096  129.9435 C   0  0  0  0  0  0  0  0  0  0  0  0
   13.0651   45.2823  131.3095 H   0  0  0  0  0  0  0  0  0  0  0  0
   10.8440   44.4801  132.6235 C   0  0  0  0  0  0  0  0  0  0  0  0
    9.9910   43.5189  132.1478 C   0  0  0  0  0  0  0  0  0  0  0  0
    9.5865   42.4365  132.9197 C   0  0  0  0  0  0  0  0  0  0  0  0
   10.0745   42.3520  134.2004 C   0  0  0  0  0  0  0  0  0  0  0  0
   10.9446   43.3112  134.7180 C   0  0  0  0  0  0  0  0  0  0  0  0
   11.5846   43.2311  136.3427 Cl  0  0  0  0  0  0  0  0  0  0  0  0
   11.3158   44.3722  133.9028 C   0  0  0  0  0  0  0  0  0  0  0  0
   12.1595   45.3043  134.3710 F   0  0  0  0  0  0  0  0  0  0  0  0
    7.3075   53.3970  127.0461 C   0  0  0  0  0  0  0  0  0  0  0  0
    7.8749   52.1862  127.0453 N   0  0  0  0  0  0  0  0  0  0  0  0
    7.5234   51.4690  128.1284 C   0  0  0  0  0  0  0  0  0  0  0  0
    7.8083   50.2270  128.6025 C   0  0  0  0  0  0  0  0  0  0  0  0
    7.2767   49.7627  129.7904 C   0  0  0  0  0  0  0  0  0  0  0  0
    6.4459   50.5763  130.4994 C   0  0  0  0  0  0  0  0  0  0  0  0
    6.1508   51.8306  130.0318 C   0  0  0  0  0  0  0  0  0  0  0  0
    6.6769   52.2999  128.8490 C   0  0  0  0  0  0  0  0  0  0  0  0
    6.5636   53.4532  128.1759 N   0  0  0  0  0  0  0  0  0  0  0  0
    6.0006   54.3008  128.4376 H   0  0  0  0  0  0  0  0  0  0  0  0
    7.4355   54.4933  126.0505 C   0  0  0  0  0  0  0  0  0  0  0  0
    6.1568   54.5095  125.2273 C   0  0  0  0  0  0  0  0  0  0  0  0
    5.1097   55.1823  125.9393 N   0  0  0  0  0  0  0  0  0  0  0  0
    5.4840   55.8982  126.5952 H   0  0  0  0  0  0  0  0  0  0  0  0
    4.4614   54.5448  126.4382 H   0  0  0  0  0  0  0  0  0  0  0  0
    6.3982   55.0328  123.8477 C   0  0  0  0  0  0  0  0  0  0  0  0
    7.8564   55.4498  123.6888 C   0  0  0  0  0  0  0  0  0  0  0  0
    4.5474   53.9146  122.5699 C   0  0  0  0  0  0  0  0  0  0  0  0
    6.0184   54.0536  122.7847 C   0  0  0  0  0  0  0  0  0  0  0  0
 41 42  1  0  0  0
 42 39  1  0  0  0
 39 40  1  0  0  0
 39 35  1  0  0  0
 35 36  1  0  0  0
 35 34  1  0  0  0
 34 24  1  0  0  0
 24 25  2  0  0  0
 25 26  1  0  0  0
 26 27  2  0  0  0
 27 28  1  0  0  0
 28 29  2  0  0  0
 29 30  1  0  0  0
 30 31  2  0  0  0
 31 32  1  0  0  0
 28  1  1  0  0  0
  1  2  2  0  0  0
  1  3  1  0  0  0
  3  5  1  0  0  0
  5  6  1  0  0  0
  6  7  1  0  0  0
  7  8  1  0  0  0
  7  9  1  0  0  0
  9 10  2  0  0  0
 10 11  1  0  0  0
 11 12  2  0  0  0
 12 13  1  0  0  0
 13 14  2  0  0  0
  7 16  1  0  0  0
 16 17  2  0  0  0
 17 18  1  0  0  0
 18 19  2  0  0  0
 19 20  1  0  0  0
 20 21  1  0  0  0
 20 22  2  0  0  0
 22 23  1  0  0  0
 32 24  1  0  0  0
 14  5  1  0  0  0
 22 16  1  0  0  0
 31 26  1  0  0  0
 14  9  1  0  0  0
 36 37  1  0  0  0
 36 38  1  0  0  0
 32 33  1  0  0  0
  3  4  1  0  0  0
  8 15  1  0  0  0
M  END
> <minimizedAffinity>
2.25182

> <CNNscore>
0.3128539622

> <CNNaffinity>
7.0825605392

> <CNN_VS>
2.2158071995

> <CNNaffinity_variance>
0.1758311838

$$$$
[H]O[C@]1(c2c([H])c([H])c([H])c(Cl)c2F)c2c([H])c([H])c([H])c([H])c2[C@]([H])(N([H])C(=O)c2c([H])c([H])c3c(nc(C([H])([H])[C@@]([H])(N([H])[H])[C@@]([H])(C([H])([H])[H])C([H])([H])C([H])([H])[H])n3[H])c2[H])C1([H])[H]


 42 46  0  0  0  0  0  0  0  0999 V2000
    9.5866   44.3856  129.2990 C   0  0  0  0  0  0  0  0  0  0  0  0
   10.4614   45.2832  129.2599 O   0  0  0  0  0  0  0  0  0  0  0  0
    8.7449   44.2129  130.4323 N   0  0  0  0  0  0  0  0  0  0  0  0
    8.0323   43.4709  130.4425 H   0  0  0  0  0  0  0  0  0  0  0  0
    8.9164   45.1159  131.5833 C   0  0  0  0  0  0  0  0  0  0  0  0
    9.8770   46.2275  131.2292 C   0  0  0  0  0  0  0  0  0  0  0  0
   10.5519   46.5088  132.5367 C   0  0  0  0  0  0  0  0  0  0  0  0
   11.8716   46.8973  132.2219 O   0  0  0  0  0  0  0  0  0  0  0  0
   10.6465   45.1912  133.1816 C   0  0  0  0  0  0  0  0  0  0  0  0
   11.4876   44.6864  134.1817 C   0  0  0  0  0  0  0  0  0  0  0  0
   11.3442   43.3947  134.5942 C   0  0  0  0  0  0  0  0  0  0  0  0
   10.3735   42.5609  134.0395 C   0  0  0  0  0  0  0  0  0  0  0  0
    9.5523   43.0659  133.0577 C   0  0  0  0  0  0  0  0  0  0  0  0
    9.6995   44.3727  132.6423 C   0  0  0  0  0  0  0  0  0  0  0  0
   12.4274   46.5809  132.9868 H   0  0  0  0  0  0  0  0  0  0  0  0
    9.9319   47.5620  133.3233 C   0  0  0  0  0  0  0  0  0  0  0  0
    9.2836   47.2509  134.4899 C   0  0  0  0  0  0  0  0  0  0  0  0
    8.6600   48.2146  135.2733 C   0  0  0  0  0  0  0  0  0  0  0  0
    8.7111   49.5164  134.8393 C   0  0  0  0  0  0  0  0  0  0  0  0
    9.3621   49.8701  133.6577 C   0  0  0  0  0  0  0  0  0  0  0  0
    9.4466   51.5175  133.0794 Cl  0  0  0  0  0  0  0  0  0  0  0  0
    9.9683   48.8666  132.9137 C   0  0  0  0  0  0  0  0  0  0  0  0
   10.6103   49.1791  131.7779 F   0  0  0  0  0  0  0  0  0  0  0  0
    9.7938   39.5724  125.8723 C   0  0  0  0  0  0  0  0  0  0  0  0
   10.1431   40.0160  127.0843 N   0  0  0  0  0  0  0  0  0  0  0  0
    9.7849   41.3000  127.2688 C   0  0  0  0  0  0  0  0  0  0  0  0
    9.8996   42.2025  128.2792 C   0  0  0  0  0  0  0  0  0  0  0  0
    9.4187   43.4923  128.1599 C   0  0  0  0  0  0  0  0  0  0  0  0
    8.8146   43.8620  126.9966 C   0  0  0  0  0  0  0  0  0  0  0  0
    8.6926   42.9612  125.9706 C   0  0  0  0  0  0  0  0  0  0  0  0
    9.1696   41.6743  126.0824 C   0  0  0  0  0  0  0  0  0  0  0  0
    9.1878   40.6167  125.2596 N   0  0  0  0  0  0  0  0  0  0  0  0
    8.8071   40.5523  124.2824 H   0  0  0  0  0  0  0  0  0  0  0  0
   10.0065   38.2314  125.2671 C   0  0  0  0  0  0  0  0  0  0  0  0
   11.4221   38.2043  124.7119 C   0  0  0  0  0  0  0  0  0  0  0  0
   11.5056   38.9835  123.5111 N   0  0  0  0  0  0  0  0  0  0  0  0
   10.8034   39.7514  123.4970 H   0  0  0  0  0  0  0  0  0  0  0  0
   11.4412   38.4246  122.6399 H   0  0  0  0  0  0  0  0  0  0  0  0
   12.4285   38.5707  125.7550 C   0  0  0  0  0  0  0  0  0  0  0  0
   12.9327   37.3188  126.4650 C   0  0  0  0  0  0  0  0  0  0  0  0
   13.2505   40.7686  124.8594 C   0  0  0  0  0  0  0  0  0  0  0  0
   13.5755   39.3519  125.2007 C   0  0  0  0  0  0  0  0  0  0  0  0
 41 42  1  0  0  0
 42 39  1  0  0  0
 39 40  1  0  0  0
 39 35  1  0  0  0
 35 36  1  0  0  0
 35 34  1  0  0  0
 34 24  1  0  0  0
 24 25  2  0  0  0
 25 26  1  0  0  0
 26 27  2  0  0  0
 27 28  1  0  0  0
 28 29  2  0  0  0
 29 30  1  0  0  0
 30 31  2  0  0  0
 31 32  1  0  0  0
 28  1  1  0  0  0
  1  2  2  0  0  0
  1  3  1  0  0  0
  3  5  1  0  0  0
  5  6  1  0  0  0
  6  7  1  0  0  0
  7  8  1  0  0  0
  7  9  1  0  0  0
  9 10  2  0  0  0
 10 11  1  0  0  0
 11 12  2  0  0  0
 12 13  1  0  0  0
 13 14  2  0  0  0
  7 16  1  0  0  0
 16 17  2  0  0  0
 17 18  1  0  0  0
 18 19  2  0  0  0
 19 20  1  0  0  0
 20 21  1  0  0  0
 20 22  2  0  0  0
 22 23  1  0  0  0
 32 24  1  0  0  0
 14  5  1  0  0  0
 22 16  1  0  0  0
 31 26  1  0  0  0
 14  9  1  0  0  0
 36 37  1  0  0  0
 36 38  1  0  0  0
 32 33  1  0  0  0
  3  4  1  0  0  0
  8 15  1  0  0  0
M  END
> <minimizedAffinity>
33.90617

> <CNNscore>
0.3068528175

> <CNNaffinity>
7.0992965698

> <CNN_VS>
2.1784391403

> <CNNaffinity_variance>
0.4642447531

$$$$
[H]O[C@]1(c2c([H])c([H])c([H])c(Cl)c2F)c2c([H])c([H])c([H])c([H])c2[C@]([H])(N([H])C(=O)c2c([H])c([H])c3c(nc(C([H])([H])[C@@]([H])(N([H])[H])[C@@]([H])(C([H])([H])[H])C([H])([H])C([H])([H])[H])n3[H])c2[H])C1([H])[H]


 42 46  0  0  0  0  0  0  0  0999 V2000
    9.8514   45.0470  129.9973 C   0  0  0  0  0  0  0  0  0  0  0  0
    9.7807   44.7295  131.2083 O   0  0  0  0  0  0  0  0  0  0  0  0
   10.0308   46.3975  129.5893 N   0  0  0  0  0  0  0  0  0  0  0  0
   10.0880   46.6357  128.5900 H   0  0  0  0  0  0  0  0  0  0  0  0
   10.1324   47.4403  130.6247 C   0  0  0  0  0  0  0  0  0  0  0  0
    9.7704   46.8651  131.9745 C   0  0  0  0  0  0  0  0  0  0  0  0
    9.1407   48.0318  132.6717 C   0  0  0  0  0  0  0  0  0  0  0  0
    8.1474   47.4944  133.5180 O   0  0  0  0  0  0  0  0  0  0  0  0
    8.4340   48.7500  131.6013 C   0  0  0  0  0  0  0  0  0  0  0  0
    7.3575   49.6463  131.6151 C   0  0  0  0  0  0  0  0  0  0  0  0
    6.9011   50.1693  130.4414 C   0  0  0  0  0  0  0  0  0  0  0  0
    7.4855   49.8296  129.2215 C   0  0  0  0  0  0  0  0  0  0  0  0
    8.5423   48.9484  129.2183 C   0  0  0  0  0  0  0  0  0  0  0  0
    9.0019   48.4209  130.4068 C   0  0  0  0  0  0  0  0  0  0  0  0
    7.4322   48.1879  133.5561 H   0  0  0  0  0  0  0  0  0  0  0  0
   10.0576   48.8236  133.4749 C   0  0  0  0  0  0  0  0  0  0  0  0
   10.9670   48.1989  134.2876 C   0  0  0  0  0  0  0  0  0  0  0  0
   11.8563   48.9053  135.0884 C   0  0  0  0  0  0  0  0  0  0  0  0
   11.7998   50.2766  135.0437 C   0  0  0  0  0  0  0  0  0  0  0  0
   10.8879   50.9464  134.2284 C   0  0  0  0  0  0  0  0  0  0  0  0
   10.7924   52.6900  134.1474 Cl  0  0  0  0  0  0  0  0  0  0  0  0
   10.0223   50.1907  133.4488 C   0  0  0  0  0  0  0  0  0  0  0  0
    9.1413   50.8084  132.6474 F   0  0  0  0  0  0  0  0  0  0  0  0
   10.2719   39.8418  127.2258 C   0  0  0  0  0  0  0  0  0  0  0  0
   10.5541   40.4401  128.3878 N   0  0  0  0  0  0  0  0  0  0  0  0
   10.1777   41.7321  128.3889 C   0  0  0  0  0  0  0  0  0  0  0  0
   10.2329   42.7568  129.2807 C   0  0  0  0  0  0  0  0  0  0  0  0
    9.7498   44.0144  128.9740 C   0  0  0  0  0  0  0  0  0  0  0  0
    9.2048   44.2255  127.7438 C   0  0  0  0  0  0  0  0  0  0  0  0
    9.1431   43.2003  126.8359 C   0  0  0  0  0  0  0  0  0  0  0  0
    9.6227   41.9446  127.1347 C   0  0  0  0  0  0  0  0  0  0  0  0
    9.6915   40.7917  126.4551 N   0  0  0  0  0  0  0  0  0  0  0  0
    9.3629   40.5988  125.4759 H   0  0  0  0  0  0  0  0  0  0  0  0
   10.5255   38.4380  126.8078 C   0  0  0  0  0  0  0  0  0  0  0  0
   11.8942   38.4026  126.1456 C   0  0  0  0  0  0  0  0  0  0  0  0
   12.3052   37.0486  125.9141 N   0  0  0  0  0  0  0  0  0  0  0  0
   11.4916   36.4122  125.7873 H   0  0  0  0  0  0  0  0  0  0  0  0
   12.9441   36.6716  126.6388 H   0  0  0  0  0  0  0  0  0  0  0  0
   11.9406   39.2761  124.9331 C   0  0  0  0  0  0  0  0  0  0  0  0
   13.3834   39.6419  124.6009 C   0  0  0  0  0  0  0  0  0  0  0  0
    9.8093   38.9182  123.6533 C   0  0  0  0  0  0  0  0  0  0  0  0
   11.2757   38.6540  123.7481 C   0  0  0  0  0  0  0  0  0  0  0  0
 41 42  1  0  0  0
 42 39  1  0  0  0
 39 40  1  0  0  0
 39 35  1  0  0  0
 35 36  1  0  0  0
 35 34  1  0  0  0
 34 24  1  0  0  0
 24 25  2  0  0  0
 25 26  1  0  0  0
 26 27  2  0  0  0
 27 28  1  0  0  0
 28 29  2  0  0  0
 29 30  1  0  0  0
 30 31  2  0  0  0
 31 32  1  0  0  0
 28  1  1  0  0  0
  1  2  2  0  0  0
  1  3  1  0  0  0
  3  5  1  0  0  0
  5  6  1  0  0  0
  6  7  1  0  0  0
  7  8  1  0  0  0
  7  9  1  0  0  0
  9 10  2  0  0  0
 10 11  1  0  0  0
 11 12  2  0  0  0
 12 13  1  0  0  0
 13 14  2  0  0  0
  7 16  1  0  0  0
 16 17  2  0  0  0
 17 18  1  0  0  0
 18 19  2  0  0  0
 19 20  1  0  0  0
 20 21  1  0  0  0
 20 22  2  0  0  0
 22 23  1  0  0  0
 32 24  1  0  0  0
 14  5  1  0  0  0
 22 16  1  0  0  0
 31 26  1  0  0  0
 14  9  1  0  0  0
 36 37  1  0  0  0
 36 38  1  0  0  0
 32 33  1  0  0  0
  3  4  1  0  0  0
  8 15  1  0  0  0
M  END
> <minimizedAffinity>
38.41648

> <CNNscore>
0.2892312706

> <CNNaffinity>
6.7776932716

> <CNN_VS>
1.9603208303

> <CNNaffinity_variance>
0.2973348498

$$$$
[H]OC([H])([H])C([H])([H])N(C([H])([H])c1c([H])c([H])c(-c2c([H])c([H])c([H])c([H])c2[H])c([H])c1[H])S(=O)(=O)c1c([H])c([H])c(C#N)c([H])c1[H]


 29 31  0  0  0  0  0  0  0  0999 V2000
   10.0315   47.4361  131.0960 N   0  0  0  0  0  0  0  0  0  0  0  0
   10.2000   46.7135  129.6184 S   0  0  0  0  0  0  0  0  0  0  0  0
    9.0050   45.8091  129.3601 O   0  0  0  0  0  0  0  0  0  0  0  0
   10.2062   47.7302  128.5108 O   0  0  0  0  0  0  0  0  0  0  0  0
   13.8982   44.0144  129.3688 C   0  0  0  0  0  0  0  0  0  0  0  0
   13.3310   44.3575  130.5802 C   0  0  0  0  0  0  0  0  0  0  0  0
   12.2185   45.1737  130.6585 C   0  0  0  0  0  0  0  0  0  0  0  0
   11.6143   45.6902  129.5304 C   0  0  0  0  0  0  0  0  0  0  0  0
   12.1855   45.3448  128.3091 C   0  0  0  0  0  0  0  0  0  0  0  0
   13.2958   44.5300  128.2353 C   0  0  0  0  0  0  0  0  0  0  0  0
   15.9738   42.4683  129.2219 N   0  0  0  0  0  0  0  0  0  0  0  0
   15.0530   43.1673  129.2843 C   0  0  0  0  0  0  0  0  0  0  0  0
   10.7648   48.5594  131.4546 C   0  0  0  0  0  0  0  0  0  0  0  0
   10.0187   49.7582  131.9468 C   0  0  0  0  0  0  0  0  0  0  0  0
    9.1178   50.2345  130.9755 O   0  0  0  0  0  0  0  0  0  0  0  0
    8.9103   49.4727  130.3800 H   0  0  0  0  0  0  0  0  0  0  0  0
    9.3448   46.7310  132.1197 C   0  0  0  0  0  0  0  0  0  0  0  0
    7.9207   46.5259  131.7753 C   0  0  0  0  0  0  0  0  0  0  0  0
    7.2266   45.4138  132.1355 C   0  0  0  0  0  0  0  0  0  0  0  0
    5.8964   45.2987  131.7756 C   0  0  0  0  0  0  0  0  0  0  0  0
    5.2587   46.2733  131.0664 C   0  0  0  0  0  0  0  0  0  0  0  0
    5.9868   47.3925  130.7131 C   0  0  0  0  0  0  0  0  0  0  0  0
    7.2948   47.5334  131.0527 C   0  0  0  0  0  0  0  0  0  0  0  0
    3.8683   46.2187  130.6554 C   0  0  0  0  0  0  0  0  0  0  0  0
    2.9199   45.4786  131.3588 C   0  0  0  0  0  0  0  0  0  0  0  0
    1.6072   45.4322  130.9642 C   0  0  0  0  0  0  0  0  0  0  0  0
    1.1863   46.1224  129.8514 C   0  0  0  0  0  0  0  0  0  0  0  0
    2.1113   46.8676  129.1329 C   0  0  0  0  0  0  0  0  0  0  0  0
    3.4341   46.9005  129.5499 C   0  0  0  0  0  0  0  0  0  0  0  0
 11 12  3  0  0  0
 12  5  1  0  0  0
  5  6  2  0  0  0
  6  7  1  0  0  0
  7  8  2  0  0  0
  8  9  1  0  0  0
  9 10  2  0  0  0
  8  2  1  0  0  0
  2  3  2  0  0  0
  2  4  2  0  0  0
  2  1  1  0  0  0
  1 13  1  0  0  0
 13 14  1  0  0  0
 14 15  1  0  0  0
  1 17  1  0  0  0
 17 18  1  0  0  0
 18 19  2  0  0  0
 19 20  1  0  0  0
 20 21  2  0  0  0
 21 22  1  0  0  0
 22 23  2  0  0  0
 21 24  1  0  0  0
 24 25  2  0  0  0
 25 26  1  0  0  0
 26 27  2  0  0  0
 27 28  1  0  0  0
 28 29  2  0  0  0
 10  5  1  0  0  0
 23 18  1  0  0  0
 29 24  1  0  0  0
 15 16  1  0  0  0
M  END
> <minimizedAffinity>
30.56668

> <CNNscore>
0.5201504230

> <CNNaffinity>
6.3867216110

> <CNN_VS>
3.3220560551

> <CNNaffinity_variance>
1.9206535816

$$$$
[H]OC([H])([H])C([H])([H])N(C([H])([H])c1c([H])c([H])c(-c2c([H])c([H])c([H])c([H])c2[H])c([H])c1[H])S(=O)(=O)c1c([H])c([H])c(C#N)c([H])c1[H]


 29 31  0  0  0  0  0  0  0  0999 V2000
    8.3445   49.4375  131.5278 N   0  0  0  0  0  0  0  0  0  0  0  0
    9.1974   49.1059  132.9049 S   0  0  0  0  0  0  0  0  0  0  0  0
   10.2768   50.1601  133.0957 O   0  0  0  0  0  0  0  0  0  0  0  0
    8.3183   49.1780  134.1225 O   0  0  0  0  0  0  0  0  0  0  0  0
   11.3757   45.0752  132.7248 C   0  0  0  0  0  0  0  0  0  0  0  0
   11.5803   46.0536  131.7719 C   0  0  0  0  0  0  0  0  0  0  0  0
   10.9224   47.2679  131.8218 C   0  0  0  0  0  0  0  0  0  0  0  0
   10.0253   47.5686  132.8265 C   0  0  0  0  0  0  0  0  0  0  0  0
    9.8186   46.5829  133.7872 C   0  0  0  0  0  0  0  0  0  0  0  0
   10.4772   45.3723  133.7337 C   0  0  0  0  0  0  0  0  0  0  0  0
   12.6062   42.7961  132.6162 N   0  0  0  0  0  0  0  0  0  0  0  0
   12.0572   43.8137  132.6757 C   0  0  0  0  0  0  0  0  0  0  0  0
    8.4866   50.6378  130.8443 C   0  0  0  0  0  0  0  0  0  0  0  0
    7.3201   51.1391  130.0542 C   0  0  0  0  0  0  0  0  0  0  0  0
    7.3858   50.7082  128.7156 O   0  0  0  0  0  0  0  0  0  0  0  0
    7.9434   49.8914  128.7052 H   0  0  0  0  0  0  0  0  0  0  0  0
    7.2388   48.6085  131.2007 C   0  0  0  0  0  0  0  0  0  0  0  0
    7.6774   47.2559  130.7921 C   0  0  0  0  0  0  0  0  0  0  0  0
    7.3619   46.1344  131.4927 C   0  0  0  0  0  0  0  0  0  0  0  0
    7.8100   44.9058  131.0432 C   0  0  0  0  0  0  0  0  0  0  0  0
    8.5626   44.7872  129.9123 C   0  0  0  0  0  0  0  0  0  0  0  0
    8.8688   45.9421  129.2194 C   0  0  0  0  0  0  0  0  0  0  0  0
    8.4426   47.1628  129.6369 C   0  0  0  0  0  0  0  0  0  0  0  0
    9.0657   43.5330  129.3839 C   0  0  0  0  0  0  0  0  0  0  0  0
    9.0710   42.3630  130.1408 C   0  0  0  0  0  0  0  0  0  0  0  0
    9.5479   41.1812  129.6341 C   0  0  0  0  0  0  0  0  0  0  0  0
   10.0395   41.1177  128.3511 C   0  0  0  0  0  0  0  0  0  0  0  0
   10.0454   42.2693  127.5759 C   0  0  0  0  0  0  0  0  0  0  0  0
    9.5581   43.4540  128.1084 C   0  0  0  0  0  0  0  0  0  0  0  0
 11 12  3  0  0  0
 12  5  1  0  0  0
  5  6  2  0  0  0
  6  7  1  0  0  0
  7  8  2  0  0  0
  8  9  1  0  0  0
  9 10  2  0  0  0
  8  2  1  0  0  0
  2  3  2  0  0  0
  2  4  2  0  0  0
  2  1  1  0  0  0
  1 13  1  0  0  0
 13 14  1  0  0  0
 14 15  1  0  0  0
  1 17  1  0  0  0
 17 18  1  0  0  0
 18 19  2  0  0  0
 19 20  1  0  0  0
 20 21  2  0  0  0
 21 22  1  0  0  0
 22 23  2  0  0  0
 21 24  1  0  0  0
 24 25  2  0  0  0
 25 26  1  0  0  0
 26 27  2  0  0  0
 27 28  1  0  0  0
 28 29  2  0  0  0
 10  5  1  0  0  0
 23 18  1  0  0  0
 29 24  1  0  0  0
 15 16  1  0  0  0
M  END
> <minimizedAffinity>
2.22096

> <CNNscore>
0.4554808736

> <CNNaffinity>
7.1484804153

> <CNN_VS>
3.2559959888

> <CNNaffinity_variance>
0.5709137917

$$$$
[H]OC([H])([H])C([H])([H])N(C([H])([H])c1c([H])c([H])c(-c2c([H])c([H])c([H])c([H])c2[H])c([H])c1[H])S(=O)(=O)c1c([H])c([H])c(C#N)c([H])c1[H]


 29 31  0  0  0  0  0  0  0  0999 V2000
    7.6528   48.9008  129.8509 N   0  0  0  0  0  0  0  0  0  0  0  0
    8.5960   48.0232  128.8146 S   0  0  0  0  0  0  0  0  0  0  0  0
    7.8968   47.9105  127.4688 O   0  0  0  0  0  0  0  0  0  0  0  0
    9.9062   48.7125  128.5522 O   0  0  0  0  0  0  0  0  0  0  0  0
    9.2640   43.7335  130.2897 C   0  0  0  0  0  0  0  0  0  0  0  0
   10.2883   44.4797  129.7411 C   0  0  0  0  0  0  0  0  0  0  0  0
   10.0889   45.7716  129.2924 C   0  0  0  0  0  0  0  0  0  0  0  0
    8.8554   46.3858  129.3682 C   0  0  0  0  0  0  0  0  0  0  0  0
    7.8226   45.6342  129.9210 C   0  0  0  0  0  0  0  0  0  0  0  0
    8.0258   44.3453  130.3676 C   0  0  0  0  0  0  0  0  0  0  0  0
    9.6456   41.3069  131.1182 N   0  0  0  0  0  0  0  0  0  0  0  0
    9.4679   42.3923  130.7563 C   0  0  0  0  0  0  0  0  0  0  0  0
    6.3890   49.3520  129.4938 C   0  0  0  0  0  0  0  0  0  0  0  0
    5.4628   48.3893  128.8219 C   0  0  0  0  0  0  0  0  0  0  0  0
    5.5931   47.0944  129.3590 O   0  0  0  0  0  0  0  0  0  0  0  0
    5.9568   47.1992  130.2726 H   0  0  0  0  0  0  0  0  0  0  0  0
    8.2553   49.4505  131.0134 C   0  0  0  0  0  0  0  0  0  0  0  0
    8.8606   48.3986  131.8595 C   0  0  0  0  0  0  0  0  0  0  0  0
    8.3467   48.0331  133.0639 C   0  0  0  0  0  0  0  0  0  0  0  0
    8.9716   47.0389  133.7940 C   0  0  0  0  0  0  0  0  0  0  0  0
   10.0936   46.4122  133.3381 C   0  0  0  0  0  0  0  0  0  0  0  0
   10.5949   46.8025  132.1117 C   0  0  0  0  0  0  0  0  0  0  0  0
   10.0024   47.7761  131.3721 C   0  0  0  0  0  0  0  0  0  0  0  0
   10.7997   45.3634  134.0499 C   0  0  0  0  0  0  0  0  0  0  0  0
   11.9769   44.8023  133.5585 C   0  0  0  0  0  0  0  0  0  0  0  0
   12.6389   43.8114  134.2374 C   0  0  0  0  0  0  0  0  0  0  0  0
   12.1538   43.3392  135.4347 C   0  0  0  0  0  0  0  0  0  0  0  0
   10.9826   43.8814  135.9462 C   0  0  0  0  0  0  0  0  0  0  0  0
   10.3293   44.8830  135.2429 C   0  0  0  0  0  0  0  0  0  0  0  0
 11 12  3  0  0  0
 12  5  1  0  0  0
  5  6  2  0  0  0
  6  7  1  0  0  0
  7  8  2  0  0  0
  8  9  1  0  0  0
  9 10  2  0  0  0
  8  2  1  0  0  0
  2  3  2  0  0  0
  2  4  2  0  0  0
  2  1  1  0  0  0
  1 13  1  0  0  0
 13 14  1  0  0  0
 14 15  1  0  0  0
  1 17  1  0  0  0
 17 18  1  0  0  0
 18 19  2  0  0  0
 19 20  1  0  0  0
 20 21  2  0  0  0
 21 22  1  0  0  0
 22 23  2  0  0  0
 21 24  1  0  0  0
 24 25  2  0  0  0
 25 26  1  0  0  0
 26 27  2  0  0  0
 27 28  1  0  0  0
 28 29  2  0  0  0
 10  5  1  0  0  0
 23 18  1  0  0  0
 29 24  1  0  0  0
 15 16  1  0  0  0
M  END
> <minimizedAffinity>
0.33767

> <CNNscore>
0.4528828561

> <CNNaffinity>
7.1526937485

> <CNN_VS>
3.2393324375

> <CNNaffinity_variance>
0.4236913323

$$$$
[H]OC([H])([H])C([H])([H])N(C([H])([H])c1c([H])c([H])c(-c2c([H])c([H])c([H])c([H])c2[H])c([H])c1[H])S(=O)(=O)c1c([H])c([H])c(C#N)c([H])c1[H]


 29 31  0  0  0  0  0  0  0  0999 V2000
    7.9076   49.5313  130.0573 N   0  0  0  0  0  0  0  0  0  0  0  0
    9.2663   49.8078  130.9579 S   0  0  0  0  0  0  0  0  0  0  0  0
   10.4747   49.8828  130.0377 O   0  0  0  0  0  0  0  0  0  0  0  0
    9.1925   51.1326  131.6651 O   0  0  0  0  0  0  0  0  0  0  0  0
   10.1355   46.4061  133.9070 C   0  0  0  0  0  0  0  0  0  0  0  0
    8.9305   47.0806  133.9122 C   0  0  0  0  0  0  0  0  0  0  0  0
    8.6672   48.1086  133.0269 C   0  0  0  0  0  0  0  0  0  0  0  0
    9.5943   48.5169  132.0897 C   0  0  0  0  0  0  0  0  0  0  0  0
   10.8091   47.8376  132.0839 C   0  0  0  0  0  0  0  0  0  0  0  0
   11.0678   46.8121  132.9691 C   0  0  0  0  0  0  0  0  0  0  0  0
   10.6388   44.4652  135.5501 N   0  0  0  0  0  0  0  0  0  0  0  0
   10.4117   45.3386  134.8247 C   0  0  0  0  0  0  0  0  0  0  0  0
    6.6572   49.9899  130.4504 C   0  0  0  0  0  0  0  0  0  0  0  0
    6.1120   51.2087  129.7772 C   0  0  0  0  0  0  0  0  0  0  0  0
    6.9375   51.6177  128.7126 O   0  0  0  0  0  0  0  0  0  0  0  0
    7.4435   50.8198  128.4204 H   0  0  0  0  0  0  0  0  0  0  0  0
    7.9691   48.5642  129.0192 C   0  0  0  0  0  0  0  0  0  0  0  0
    8.4095   47.2475  129.5302 C   0  0  0  0  0  0  0  0  0  0  0  0
    7.6363   46.4717  130.3356 C   0  0  0  0  0  0  0  0  0  0  0  0
    8.1209   45.2517  130.7700 C   0  0  0  0  0  0  0  0  0  0  0  0
    9.3579   44.8030  130.4119 C   0  0  0  0  0  0  0  0  0  0  0  0
   10.1228   45.6105  129.5932 C   0  0  0  0  0  0  0  0  0  0  0  0
    9.6731   46.8139  129.1507 C   0  0  0  0  0  0  0  0  0  0  0  0
    9.9290   43.5364  130.8301 C   0  0  0  0  0  0  0  0  0  0  0  0
    9.5359   42.3265  130.2612 C   0  0  0  0  0  0  0  0  0  0  0  0
   10.0807   41.1333  130.6616 C   0  0  0  0  0  0  0  0  0  0  0  0
   11.0403   41.0976  131.6463 C   0  0  0  0  0  0  0  0  0  0  0  0
   11.4496   42.2892  132.2294 C   0  0  0  0  0  0  0  0  0  0  0  0
   10.8852   43.4849  131.8090 C   0  0  0  0  0  0  0  0  0  0  0  0
 11 12  3  0  0  0
 12  5  1  0  0  0
  5  6  2  0  0  0
  6  7  1  0  0  0
  7  8  2  0  0  0
  8  9  1  0  0  0
  9 10  2  0  0  0
  8  2  1  0  0  0
  2  3  2  0  0  0
  2  4  2  0  0  0
  2  1  1  0  0  0
  1 13  1  0  0  0
 13 14  1  0  0  0
 14 15  1  0  0  0
  1 17  1  0  0  0
 17 18  1  0  0  0
 18 19  2  0  0  0
 19 20  1  0  0  0
 20 21  2  0  0  0
 21 22  1  0  0  0
 22 23  2  0  0  0
 21 24  1  0  0  0
 24 25  2  0  0  0
 25 26  1  0  0  0
 26 27  2  0  0  0
 27 28  1  0  0  0
 28 29  2  0  0  0
 10  5  1  0  0  0
 23 18  1  0  0  0
 29 24  1  0  0  0
 15 16  1  0  0  0
M  END
> <minimizedAffinity>
-3.08125

> <CNNscore>
0.4309055209

> <CNNaffinity>
7.2305879593

> <CNN_VS>
3.1157002449

> <CNNaffinity_variance>
0.2438795567

$$$$
[H]OC([H])([H])C([H])([H])N(C([H])([H])c1c([H])c([H])c(-c2c([H])c([H])c([H])c([H])c2[H])c([H])c1[H])S(=O)(=O)c1c([H])c([H])c(C#N)c([H])c1[H]


 29 31  0  0  0  0  0  0  0  0999 V2000
   10.5074   42.1354  131.8594 N   0  0  0  0  0  0  0  0  0  0  0  0
    9.2286   42.2232  130.8150 S   0  0  0  0  0  0  0  0  0  0  0  0
    9.0266   40.8704  130.1503 O   0  0  0  0  0  0  0  0  0  0  0  0
    7.9493   42.5303  131.5427 O   0  0  0  0  0  0  0  0  0  0  0  0
    9.9593   45.2260  127.4278 C   0  0  0  0  0  0  0  0  0  0  0  0
    8.8986   45.3620  128.3016 C   0  0  0  0  0  0  0  0  0  0  0  0
    8.6740   44.4565  129.3211 C   0  0  0  0  0  0  0  0  0  0  0  0
    9.4974   43.3672  129.5212 C   0  0  0  0  0  0  0  0  0  0  0  0
   10.5666   43.2295  128.6409 C   0  0  0  0  0  0  0  0  0  0  0  0
   10.7872   44.1355  127.6247 C   0  0  0  0  0  0  0  0  0  0  0  0
   10.3753   46.9099  125.5012 N   0  0  0  0  0  0  0  0  0  0  0  0
   10.1950   46.1644  126.3685 C   0  0  0  0  0  0  0  0  0  0  0  0
   10.4085   41.5078  133.0941 C   0  0  0  0  0  0  0  0  0  0  0  0
    9.7613   42.2581  134.2141 C   0  0  0  0  0  0  0  0  0  0  0  0
    8.3995   42.4983  133.9493 O   0  0  0  0  0  0  0  0  0  0  0  0
    8.1077   41.8079  133.3041 H   0  0  0  0  0  0  0  0  0  0  0  0
   11.6356   42.9638  131.6188 C   0  0  0  0  0  0  0  0  0  0  0  0
   11.2668   44.3965  131.6219 C   0  0  0  0  0  0  0  0  0  0  0  0
   11.9450   45.3351  130.9095 C   0  0  0  0  0  0  0  0  0  0  0  0
   11.5356   46.6548  130.9648 C   0  0  0  0  0  0  0  0  0  0  0  0
   10.4664   47.0428  131.7170 C   0  0  0  0  0  0  0  0  0  0  0  0
    9.7952   46.0695  132.4310 C   0  0  0  0  0  0  0  0  0  0  0  0
   10.1743   44.7652  132.3960 C   0  0  0  0  0  0  0  0  0  0  0  0
    9.9828   48.4067  131.8215 C   0  0  0  0  0  0  0  0  0  0  0  0
    9.3101   49.0329  130.7740 C   0  0  0  0  0  0  0  0  0  0  0  0
    8.8555   50.3226  130.8805 C   0  0  0  0  0  0  0  0  0  0  0  0
    9.0534   51.0409  132.0366 C   0  0  0  0  0  0  0  0  0  0  0  0
    9.7208   50.4401  133.0953 C   0  0  0  0  0  0  0  0  0  0  0  0
   10.1721   49.1346  132.9660 C   0  0  0  0  0  0  0  0  0  0  0  0
 11 12  3  0  0  0
 12  5  1  0  0  0
  5  6  2  0  0  0
  6  7  1  0  0  0
  7  8  2  0  0  0
  8  9  1  0  0  0
  9 10  2  0  0  0
  8  2  1  0  0  0
  2  3  2  0  0  0
  2  4  2  0  0  0
  2  1  1  0  0  0
  1 13  1  0  0  0
 13 14  1  0  0  0
 14 15  1  0  0  0
  1 17  1  0  0  0
 17 18  1  0  0  0
 18 19  2  0  0  0
 19 20  1  0  0  0
 20 21  2  0  0  0
 21 22  1  0  0  0
 22 23  2  0  0  0
 21 24  1  0  0  0
 24 25  2  0  0  0
 25 26  1  0  0  0
 26 27  2  0  0  0
 27 28  1  0  0  0
 28 29  2  0  0  0
 10  5  1  0  0  0
 23 18  1  0  0  0
 29 24  1  0  0  0
 15 16  1  0  0  0
M  END
> <minimizedAffinity>
6.98016

> <CNNscore>
0.4220486283

> <CNNaffinity>
7.0133895874

> <CNN_VS>
2.9599914551

> <CNNaffinity_variance>
1.2159535885

$$$$
[H]OC([H])([H])C([H])([H])N(C([H])([H])c1c([H])c([H])c(-c2c([H])c([H])c([H])c([H])c2[H])c([H])c1[H])S(=O)(=O)c1c([H])c([H])c(C#N)c([H])c1[H]


 29 31  0  0  0  0  0  0  0  0999 V2000
   11.8017   44.2745  129.9480 N   0  0  0  0  0  0  0  0  0  0  0  0
   12.1750   43.9118  131.5173 S   0  0  0  0  0  0  0  0  0  0  0  0
   11.8695   42.4459  131.7826 O   0  0  0  0  0  0  0  0  0  0  0  0
   13.6436   44.0912  131.7848 O   0  0  0  0  0  0  0  0  0  0  0  0
    9.6755   46.2889  134.5382 C   0  0  0  0  0  0  0  0  0  0  0  0
    9.1497   45.8696  133.3320 C   0  0  0  0  0  0  0  0  0  0  0  0
    9.9019   45.1561  132.4182 C   0  0  0  0  0  0  0  0  0  0  0  0
   11.2191   44.8241  132.6614 C   0  0  0  0  0  0  0  0  0  0  0  0
   11.7497   45.2465  133.8769 C   0  0  0  0  0  0  0  0  0  0  0  0
   10.9956   45.9583  134.7861 C   0  0  0  0  0  0  0  0  0  0  0  0
    8.2579   47.6114  136.2592 N   0  0  0  0  0  0  0  0  0  0  0  0
    8.8971   47.0297  135.4888 C   0  0  0  0  0  0  0  0  0  0  0  0
   11.5179   43.2892  129.0116 C   0  0  0  0  0  0  0  0  0  0  0  0
   11.1288   43.7203  127.6336 C   0  0  0  0  0  0  0  0  0  0  0  0
    9.8147   43.3206  127.3245 O   0  0  0  0  0  0  0  0  0  0  0  0
    9.3413   43.2045  128.1850 H   0  0  0  0  0  0  0  0  0  0  0  0
   12.0594   45.5895  129.4777 C   0  0  0  0  0  0  0  0  0  0  0  0
   10.8148   46.3829  129.3768 C   0  0  0  0  0  0  0  0  0  0  0  0
   10.7594   47.5948  128.7632 C   0  0  0  0  0  0  0  0  0  0  0  0
    9.5556   48.2732  128.7100 C   0  0  0  0  0  0  0  0  0  0  0  0
    8.4179   47.7588  129.2581 C   0  0  0  0  0  0  0  0  0  0  0  0
    8.5018   46.5262  129.8754 C   0  0  0  0  0  0  0  0  0  0  0  0
    9.6705   45.8364  129.9431 C   0  0  0  0  0  0  0  0  0  0  0  0
    7.1237   48.4144  129.2395 C   0  0  0  0  0  0  0  0  0  0  0  0
    6.7155   49.2697  130.2611 C   0  0  0  0  0  0  0  0  0  0  0  0
    5.4905   49.8861  130.2363 C   0  0  0  0  0  0  0  0  0  0  0  0
    4.6219   49.6745  129.1910 C   0  0  0  0  0  0  0  0  0  0  0  0
    5.0044   48.8267  128.1604 C   0  0  0  0  0  0  0  0  0  0  0  0
    6.2481   48.2137  128.2058 C   0  0  0  0  0  0  0  0  0  0  0  0
 11 12  3  0  0  0
 12  5  1  0  0  0
  5  6  2  0  0  0
  6  7  1  0  0  0
  7  8  2  0  0  0
  8  9  1  0  0  0
  9 10  2  0  0  0
  8  2  1  0  0  0
  2  3  2  0  0  0
  2  4  2  0  0  0
  2  1  1  0  0  0
  1 13  1  0  0  0
 13 14  1  0  0  0
 14 15  1  0  0  0
  1 17  1  0  0  0
 17 18  1  0  0  0
 18 19  2  0  0  0
 19 20  1  0  0  0
 20 21  2  0  0  0
 21 22  1  0  0  0
 22 23  2  0  0  0
 21 24  1  0  0  0
 24 25  2  0  0  0
 25 26  1  0  0  0
 26 27  2  0  0  0
 27 28  1  0  0  0
 28 29  2  0  0  0
 10  5  1  0  0  0
 23 18  1  0  0  0
 29 24  1  0  0  0
 15 16  1  0  0  0
M  END
> <minimizedAffinity>
5.29999

> <CNNscore>
0.4186724722

> <CNNaffinity>
7.1532239914

> <CNN_VS>
2.9948580265

> <CNNaffinity_variance>
1.6677697897

$$$$
[H]OC([H])([H])C([H])([H])N(C([H])([H])c1c([H])c([H])c(-c2c([H])c([H])c([H])c([H])c2[H])c([H])c1[H])S(=O)(=O)c1c([H])c([H])c(C#N)c([H])c1[H]


 29 31  0  0  0  0  0  0  0  0999 V2000
    9.7077   45.3674  132.4452 N   0  0  0  0  0  0  0  0  0  0  0  0
    9.7821   44.2202  131.2568 S   0  0  0  0  0  0  0  0  0  0  0  0
    9.5597   42.8456  131.8681 O   0  0  0  0  0  0  0  0  0  0  0  0
    8.6884   44.4124  130.2431 O   0  0  0  0  0  0  0  0  0  0  0  0
   13.8754   44.0510  129.1978 C   0  0  0  0  0  0  0  0  0  0  0  0
   13.7284   43.7777  130.5434 C   0  0  0  0  0  0  0  0  0  0  0  0
   12.4964   43.8314  131.1673 C   0  0  0  0  0  0  0  0  0  0  0  0
   11.3463   44.1613  130.4794 C   0  0  0  0  0  0  0  0  0  0  0  0
   11.4938   44.4369  129.1231 C   0  0  0  0  0  0  0  0  0  0  0  0
   12.7252   44.3821  128.5044 C   0  0  0  0  0  0  0  0  0  0  0  0
   16.1776   43.9649  128.0092 N   0  0  0  0  0  0  0  0  0  0  0  0
   15.1530   43.9960  128.5474 C   0  0  0  0  0  0  0  0  0  0  0  0
   10.7571   45.5820  133.3287 C   0  0  0  0  0  0  0  0  0  0  0  0
   10.4370   46.1423  134.6777 C   0  0  0  0  0  0  0  0  0  0  0  0
    9.4488   45.3786  135.3275 O   0  0  0  0  0  0  0  0  0  0  0  0
    9.4814   44.4728  134.9319 H   0  0  0  0  0  0  0  0  0  0  0  0
    8.4457   45.9409  132.7540 C   0  0  0  0  0  0  0  0  0  0  0  0
    8.1286   47.0708  131.8533 C   0  0  0  0  0  0  0  0  0  0  0  0
    7.3208   46.9449  130.7670 C   0  0  0  0  0  0  0  0  0  0  0  0
    7.0724   48.0510  129.9751 C   0  0  0  0  0  0  0  0  0  0  0  0
    7.6174   49.2694  130.2542 C   0  0  0  0  0  0  0  0  0  0  0  0
    8.4343   49.3698  131.3633 C   0  0  0  0  0  0  0  0  0  0  0  0
    8.6962   48.3006  132.1598 C   0  0  0  0  0  0  0  0  0  0  0  0
    7.4006   50.4697  129.4683 C   0  0  0  0  0  0  0  0  0  0  0  0
    7.3504   51.7342  130.0519 C   0  0  0  0  0  0  0  0  0  0  0  0
    7.1454   52.8642  129.3022 C   0  0  0  0  0  0  0  0  0  0  0  0
    6.9818   52.7795  127.9392 C   0  0  0  0  0  0  0  0  0  0  0  0
    7.0275   51.5314  127.3330 C   0  0  0  0  0  0  0  0  0  0  0  0
    7.2361   50.4014  128.1105 C   0  0  0  0  0  0  0  0  0  0  0  0
 11 12  3  0  0  0
 12  5  1  0  0  0
  5  6  2  0  0  0
  6  7  1  0  0  0
  7  8  2  0  0  0
  8  9  1  0  0  0
  9 10  2  0  0  0
  8  2  1  0  0  0
  2  3  2  0  0  0
  2  4  2  0  0  0
  2  1  1  0  0  0
  1 13  1  0  0  0
 13 14  1  0  0  0
 14 15  1  0  0  0
  1 17  1  0  0  0
 17 18  1  0  0  0
 18 19  2  0  0  0
 19 20  1  0  0  0
 20 21  2  0  0  0
 21 22  1  0  0  0
 22 23  2  0  0  0
 21 24  1  0  0  0
 24 25  2  0  0  0
 25 26  1  0  0  0
 26 27  2  0  0  0
 27 28  1  0  0  0
 28 29  2  0  0  0
 10  5  1  0  0  0
 23 18  1  0  0  0
 29 24  1  0  0  0
 15 16  1  0  0  0
M  END
> <minimizedAffinity>
8.75080

> <CNNscore>
0.4114555418

> <CNNaffinity>
6.8618569374

> <CNN_VS>
2.8233489990

> <CNNaffinity_variance>
0.9249154925

$$$$
[H]OC([H])([H])C([H])([H])N(C([H])([H])c1c([H])c([H])c(-c2c([H])c([H])c([H])c([H])c2[H])c([H])c1[H])S(=O)(=O)c1c([H])c([H])c(C#N)c([H])c1[H]


 29 31  0  0  0  0  0  0  0  0999 V2000
    9.1062   44.3500  131.6864 N   0  0  0  0  0  0  0  0  0  0  0  0
    9.4777   45.3996  130.4641 S   0  0  0  0  0  0  0  0  0  0  0  0
    8.2082   45.7671  129.7116 O   0  0  0  0  0  0  0  0  0  0  0  0
   10.0368   46.6877  131.0014 O   0  0  0  0  0  0  0  0  0  0  0  0
   12.3012   43.5348  127.3699 C   0  0  0  0  0  0  0  0  0  0  0  0
   12.7756   44.3027  128.4150 C   0  0  0  0  0  0  0  0  0  0  0  0
   11.9266   44.8689  129.3469 C   0  0  0  0  0  0  0  0  0  0  0  0
   10.5586   44.6977  129.2835 C   0  0  0  0  0  0  0  0  0  0  0  0
   10.0798   43.9239  128.2304 C   0  0  0  0  0  0  0  0  0  0  0  0
   10.9306   43.3606  127.3024 C   0  0  0  0  0  0  0  0  0  0  0  0
   13.8864   42.4860  125.6070 N   0  0  0  0  0  0  0  0  0  0  0  0
   13.1801   42.9458  126.4009 C   0  0  0  0  0  0  0  0  0  0  0  0
    9.0649   42.9759  131.4905 C   0  0  0  0  0  0  0  0  0  0  0  0
    7.7258   42.3117  131.4494 C   0  0  0  0  0  0  0  0  0  0  0  0
    7.6779   41.3183  130.4530 O   0  0  0  0  0  0  0  0  0  0  0  0
    8.6103   41.0318  130.2898 H   0  0  0  0  0  0  0  0  0  0  0  0
    8.5369   44.8730  132.8777 C   0  0  0  0  0  0  0  0  0  0  0  0
    9.0644   46.2208  133.1844 C   0  0  0  0  0  0  0  0  0  0  0  0
   10.1946   46.4233  133.9124 C   0  0  0  0  0  0  0  0  0  0  0  0
   10.6225   47.7158  134.1544 C   0  0  0  0  0  0  0  0  0  0  0  0
    9.9398   48.7974  133.6815 C   0  0  0  0  0  0  0  0  0  0  0  0
    8.7951   48.5637  132.9449 C   0  0  0  0  0  0  0  0  0  0  0  0
    8.3505   47.3051  132.6911 C   0  0  0  0  0  0  0  0  0  0  0  0
   10.3301   50.1781  133.8969 C   0  0  0  0  0  0  0  0  0  0  0  0
   11.6008   50.5226  134.3539 C   0  0  0  0  0  0  0  0  0  0  0  0
   11.9624   51.8302  134.5549 C   0  0  0  0  0  0  0  0  0  0  0  0
   11.0712   52.8484  134.3083 C   0  0  0  0  0  0  0  0  0  0  0  0
    9.7987   52.5321  133.8523 C   0  0  0  0  0  0  0  0  0  0  0  0
    9.4540   51.2027  133.6558 C   0  0  0  0  0  0  0  0  0  0  0  0
 11 12  3  0  0  0
 12  5  1  0  0  0
  5  6  2  0  0  0
  6  7  1  0  0  0
  7  8  2  0  0  0
  8  9  1  0  0  0
  9 10  2  0  0  0
  8  2  1  0  0  0
  2  3  2  0  0  0
  2  4  2  0  0  0
  2  1  1  0  0  0
  1 13  1  0  0  0
 13 14  1  0  0  0
 14 15  1  0  0  0
  1 17  1  0  0  0
 17 18  1  0  0  0
 18 19  2  0  0  0
 19 20  1  0  0  0
 20 21  2  0  0  0
 21 22  1  0  0  0
 22 23  2  0  0  0
 21 24  1  0  0  0
 24 25  2  0  0  0
 25 26  1  0  0  0
 26 27  2  0  0  0
 27 28  1  0  0  0
 28 29  2  0  0  0
 10  5  1  0  0  0
 23 18  1  0  0  0
 29 24  1  0  0  0
 15 16  1  0  0  0
M  END
> <minimizedAffinity>
24.60243

> <CNNscore>
0.4088182151

> <CNNaffinity>
6.6049156189

> <CNN_VS>
2.7002098560

> <CNNaffinity_variance>
1.3186211586

$$$$
[H]OC([H])([H])C([H])([H])N(C([H])([H])c1c([H])c([H])c(-c2c([H])c([H])c([H])c([H])c2[H])c([H])c1[H])S(=O)(=O)c1c([H])c([H])c(C#N)c([H])c1[H]


 29 31  0  0  0  0  0  0  0  0999 V2000
    6.9071   48.2386  129.8362 N   0  0  0  0  0  0  0  0  0  0  0  0
    7.9174   48.9724  130.9199 S   0  0  0  0  0  0  0  0  0  0  0  0
    9.0413   49.6697  130.1694 O   0  0  0  0  0  0  0  0  0  0  0  0
    7.2013   50.0428  131.6958 O   0  0  0  0  0  0  0  0  0  0  0  0
    9.9492   45.9733  133.7307 C   0  0  0  0  0  0  0  0  0  0  0  0
    8.5770   46.0118  133.5804 C   0  0  0  0  0  0  0  0  0  0  0  0
    7.9618   46.9171  132.7367 C   0  0  0  0  0  0  0  0  0  0  0  0
    8.6853   47.8316  131.9987 C   0  0  0  0  0  0  0  0  0  0  0  0
   10.0684   47.7933  132.1497 C   0  0  0  0  0  0  0  0  0  0  0  0
   10.6784   46.8882  132.9929 C   0  0  0  0  0  0  0  0  0  0  0  0
   11.0937   44.2797  135.3252 N   0  0  0  0  0  0  0  0  0  0  0  0
   10.5907   45.0346  134.6058 C   0  0  0  0  0  0  0  0  0  0  0  0
    5.9456   48.9477  129.1284 C   0  0  0  0  0  0  0  0  0  0  0  0
    5.8302   50.4174  129.3787 C   0  0  0  0  0  0  0  0  0  0  0  0
    6.8847   51.1243  128.7701 O   0  0  0  0  0  0  0  0  0  0  0  0
    7.2152   50.5612  128.0273 H   0  0  0  0  0  0  0  0  0  0  0  0
    6.8227   46.8209  129.8424 C   0  0  0  0  0  0  0  0  0  0  0  0
    8.1641   46.1978  129.8099 C   0  0  0  0  0  0  0  0  0  0  0  0
    8.4351   44.9980  130.3888 C   0  0  0  0  0  0  0  0  0  0  0  0
    9.7160   44.4825  130.3128 C   0  0  0  0  0  0  0  0  0  0  0  0
   10.7191   45.1467  129.6709 C   0  0  0  0  0  0  0  0  0  0  0  0
   10.4170   46.3634  129.0914 C   0  0  0  0  0  0  0  0  0  0  0  0
    9.1678   46.8947  129.1499 C   0  0  0  0  0  0  0  0  0  0  0  0
   12.0831   44.6664  129.5528 C   0  0  0  0  0  0  0  0  0  0  0  0
   12.7787   44.1461  130.6426 C   0  0  0  0  0  0  0  0  0  0  0  0
   14.0679   43.6937  130.5230 C   0  0  0  0  0  0  0  0  0  0  0  0
   14.7167   43.7417  129.3111 C   0  0  0  0  0  0  0  0  0  0  0  0
   14.0459   44.2554  128.2096 C   0  0  0  0  0  0  0  0  0  0  0  0
   12.7422   44.7075  128.3531 C   0  0  0  0  0  0  0  0  0  0  0  0
 11 12  3  0  0  0
 12  5  1  0  0  0
  5  6  2  0  0  0
  6  7  1  0  0  0
  7  8  2  0  0  0
  8  9  1  0  0  0
  9 10  2  0  0  0
  8  2  1  0  0  0
  2  3  2  0  0  0
  2  4  2  0  0  0
  2  1  1  0  0  0
  1 13  1  0  0  0
 13 14  1  0  0  0
 14 15  1  0  0  0
  1 17  1  0  0  0
 17 18  1  0  0  0
 18 19  2  0  0  0
 19 20  1  0  0  0
 20 21  2  0  0  0
 21 22  1  0  0  0
 22 23  2  0  0  0
 21 24  1  0  0  0
 24 25  2  0  0  0
 25 26  1  0  0  0
 26 27  2  0  0  0
 27 28  1  0  0  0
 28 29  2  0  0  0
 10  5  1  0  0  0
 23 18  1  0  0  0
 29 24  1  0  0  0
 15 16  1  0  0  0
M  END
> <minimizedAffinity>
-0.67169

> <CNNscore>
0.3876405358

> <CNNaffinity>
6.9246048927

> <CNN_VS>
2.6842575073

> <CNNaffinity_variance>
0.2620438933

$$$$
[H]c1nc([H])c(Cl)c(N([H])C(=O)N([H])c2c([H])c(-c3c([H])c([H])c([H])c(-c4c([H])c([H])c([H])c(S(=O)(=O)C([H])([H])[H])c4[H])c3[H])nn(C([H])([H])C([H])([H])[H])c2=O)c1Cl


 39 42  0  0  0  0  0  0  0  0999 V2000
   10.0154   42.3792  128.3943 N   0  0  0  0  0  0  0  0  0  0  0  0
   10.6827   42.5585  129.4889 N   0  0  0  0  0  0  0  0  0  0  0  0
   10.5354   43.6166  130.3027 C   0  0  0  0  0  0  0  0  0  0  0  0
    9.5968   44.5828  129.9352 C   0  0  0  0  0  0  0  0  0  0  0  0
    8.8791   44.4053  128.7728 C   0  0  0  0  0  0  0  0  0  0  0  0
    9.1072   43.2718  127.9977 C   0  0  0  0  0  0  0  0  0  0  0  0
    8.4377   43.1311  126.9374 O   0  0  0  0  0  0  0  0  0  0  0  0
    7.9199   45.3176  128.3234 N   0  0  0  0  0  0  0  0  0  0  0  0
    7.5153   46.4762  128.9564 C   0  0  0  0  0  0  0  0  0  0  0  0
    7.9466   46.8865  130.0314 O   0  0  0  0  0  0  0  0  0  0  0  0
    6.5040   47.2965  128.3311 N   0  0  0  0  0  0  0  0  0  0  0  0
    7.4322   45.1149  127.3859 H   0  0  0  0  0  0  0  0  0  0  0  0
    6.0841   47.0050  127.3983 H   0  0  0  0  0  0  0  0  0  0  0  0
    6.0871   48.4844  128.9782 C   0  0  0  0  0  0  0  0  0  0  0  0
    4.8141   48.5148  129.5151 C   0  0  0  0  0  0  0  0  0  0  0  0
    3.7665   47.1127  129.3878 Cl  0  0  0  0  0  0  0  0  0  0  0  0
    4.3905   49.6540  130.1444 C   0  0  0  0  0  0  0  0  0  0  0  0
    5.2077   50.7282  130.2363 N   0  0  0  0  0  0  0  0  0  0  0  0
    6.4630   50.7191  129.7152 C   0  0  0  0  0  0  0  0  0  0  0  0
    6.9296   49.5969  129.0749 C   0  0  0  0  0  0  0  0  0  0  0  0
    8.5330   49.5427  128.3917 Cl  0  0  0  0  0  0  0  0  0  0  0  0
   11.3336   43.7442  131.5274 C   0  0  0  0  0  0  0  0  0  0  0  0
   12.0707   42.7401  132.0877 C   0  0  0  0  0  0  0  0  0  0  0  0
   12.8129   42.9074  133.2527 C   0  0  0  0  0  0  0  0  0  0  0  0
   12.7994   44.1576  133.8708 C   0  0  0  0  0  0  0  0  0  0  0  0
   12.0751   45.1775  133.3375 C   0  0  0  0  0  0  0  0  0  0  0  0
   11.3414   44.9684  132.1634 C   0  0  0  0  0  0  0  0  0  0  0  0
   12.0588   46.4863  133.9825 C   0  0  0  0  0  0  0  0  0  0  0  0
   12.9521   46.7724  135.0031 C   0  0  0  0  0  0  0  0  0  0  0  0
   12.8997   48.0318  135.5879 C   0  0  0  0  0  0  0  0  0  0  0  0
   11.9923   48.9830  135.1786 C   0  0  0  0  0  0  0  0  0  0  0  0
   11.1086   48.6887  134.1630 C   0  0  0  0  0  0  0  0  0  0  0  0
   11.1468   47.4412  133.5704 C   0  0  0  0  0  0  0  0  0  0  0  0
    9.9254   49.8310  133.5797 S   0  0  0  0  0  0  0  0  0  0  0  0
    9.6282   49.6962  131.8519 C   0  0  0  0  0  0  0  0  0  0  0  0
   10.4145   51.2156  133.9740 O   0  0  0  0  0  0  0  0  0  0  0  0
    8.6668   49.6014  134.3860 O   0  0  0  0  0  0  0  0  0  0  0  0
    9.9613   39.9219  128.2917 C   0  0  0  0  0  0  0  0  0  0  0  0
   10.2208   41.1998  127.5444 C   0  0  0  0  0  0  0  0  0  0  0  0
 38 39  1  0  0  0
 39  1  1  0  0  0
  1  2  1  0  0  0
  2  3  2  0  0  0
  3  4  1  0  0  0
  4  5  2  0  0  0
  5  8  1  0  0  0
  8  9  1  0  0  0
  9 10  2  0  0  0
  9 11  1  0  0  0
 11 14  1  0  0  0
 14 15  2  0  0  0
 15 16  1  0  0  0
 15 17  1  0  0  0
 17 18  2  0  0  0
 18 19  1  0  0  0
 19 20  2  0  0  0
 20 21  1  0  0  0
  5  6  1  0  0  0
  6  7  2  0  0  0
  3 22  1  0  0  0
 22 23  2  0  0  0
 23 24  1  0  0  0
 24 25  2  0  0  0
 25 26  1  0  0  0
 26 27  2  0  0  0
 26 28  1  0  0  0
 28 29  2  0  0  0
 29 30  1  0  0  0
 30 31  2  0  0  0
 31 32  1  0  0  0
 32 33  2  0  0  0
 32 34  1  0  0  0
 34 35  1  0  0  0
 34 36  2  0  0  0
 34 37  2  0  0  0
  6  1  1  0  0  0
 27 22  1  0  0  0
 33 28  1  0  0  0
 20 14  1  0  0  0
  8 12  1  0  0  0
 11 13  1  0  0  0
M  END
> <minimizedAffinity>
26.42162

> <CNNscore>
0.4687335491

> <CNNaffinity>
7.7983665466

> <CNN_VS>
3.6553559303

> <CNNaffinity_variance>
0.9659070969

$$$$
[H]c1nc([H])c(Cl)c(N([H])C(=O)N([H])c2c([H])c(-c3c([H])c([H])c([H])c(-c4c([H])c([H])c([H])c(S(=O)(=O)C([H])([H])[H])c4[H])c3[H])nn(C([H])([H])C([H])([H])[H])c2=O)c1Cl


 39 42  0  0  0  0  0  0  0  0999 V2000
    7.9393   48.6579  128.6677 N   0  0  0  0  0  0  0  0  0  0  0  0
    8.4829   48.4750  129.8282 N   0  0  0  0  0  0  0  0  0  0  0  0
    8.7270   49.4540  130.7144 C   0  0  0  0  0  0  0  0  0  0  0  0
    8.3667   50.7530  130.3510 C   0  0  0  0  0  0  0  0  0  0  0  0
    7.7872   50.9629  129.1189 C   0  0  0  0  0  0  0  0  0  0  0  0
    7.5765   49.8787  128.2716 C   0  0  0  0  0  0  0  0  0  0  0  0
    7.0441   50.0957  127.1484 O   0  0  0  0  0  0  0  0  0  0  0  0
    7.3941   52.2263  128.6676 N   0  0  0  0  0  0  0  0  0  0  0  0
    7.0610   52.5795  127.3750 C   0  0  0  0  0  0  0  0  0  0  0  0
    7.0606   51.8206  126.4085 O   0  0  0  0  0  0  0  0  0  0  0  0
    6.6768   53.9449  127.1015 N   0  0  0  0  0  0  0  0  0  0  0  0
    7.3382   53.0237  129.3880 H   0  0  0  0  0  0  0  0  0  0  0  0
    6.6533   54.6592  127.8894 H   0  0  0  0  0  0  0  0  0  0  0  0
    6.3353   54.3098  125.7772 C   0  0  0  0  0  0  0  0  0  0  0  0
    4.9980   54.3002  125.4291 C   0  0  0  0  0  0  0  0  0  0  0  0
    3.7799   53.8479  126.6087 Cl  0  0  0  0  0  0  0  0  0  0  0  0
    4.6458   54.6488  124.1532 C   0  0  0  0  0  0  0  0  0  0  0  0
    5.5942   54.9959  123.2532 N   0  0  0  0  0  0  0  0  0  0  0  0
    6.9147   55.0119  123.5749 C   0  0  0  0  0  0  0  0  0  0  0  0
    7.3135   54.6691  124.8441 C   0  0  0  0  0  0  0  0  0  0  0  0
    8.9968   54.6759  125.2990 Cl  0  0  0  0  0  0  0  0  0  0  0  0
    9.3486   49.1609  132.0110 C   0  0  0  0  0  0  0  0  0  0  0  0
    9.6282   50.0910  132.9713 C   0  0  0  0  0  0  0  0  0  0  0  0
   10.2201   49.7662  134.1881 C   0  0  0  0  0  0  0  0  0  0  0  0
   10.5398   48.4307  134.4315 C   0  0  0  0  0  0  0  0  0  0  0  0
   10.2741   47.4811  133.4951 C   0  0  0  0  0  0  0  0  0  0  0  0
    9.6773   47.8490  132.2830 C   0  0  0  0  0  0  0  0  0  0  0  0
   10.6081   46.0832  133.7470 C   0  0  0  0  0  0  0  0  0  0  0  0
   11.4966   45.7493  134.7573 C   0  0  0  0  0  0  0  0  0  0  0  0
   11.7848   44.4053  134.9607 C   0  0  0  0  0  0  0  0  0  0  0  0
   11.2135   43.4175  134.1902 C   0  0  0  0  0  0  0  0  0  0  0  0
   10.3313   43.7600  133.1884 C   0  0  0  0  0  0  0  0  0  0  0  0
   10.0335   45.0917  132.9723 C   0  0  0  0  0  0  0  0  0  0  0  0
    9.5602   42.5768  132.1636 S   0  0  0  0  0  0  0  0  0  0  0  0
    9.5723   43.0232  130.4628 C   0  0  0  0  0  0  0  0  0  0  0  0
    8.1503   42.3798  132.6976 O   0  0  0  0  0  0  0  0  0  0  0  0
   10.2717   41.2645  132.4051 O   0  0  0  0  0  0  0  0  0  0  0  0
    8.5530   46.3537  128.0630 C   0  0  0  0  0  0  0  0  0  0  0  0
    7.6968   47.5460  127.7402 C   0  0  0  0  0  0  0  0  0  0  0  0
 38 39  1  0  0  0
 39  1  1  0  0  0
  1  2  1  0  0  0
  2  3  2  0  0  0
  3  4  1  0  0  0
  4  5  2  0  0  0
  5  8  1  0  0  0
  8  9  1  0  0  0
  9 10  2  0  0  0
  9 11  1  0  0  0
 11 14  1  0  0  0
 14 15  2  0  0  0
 15 16  1  0  0  0
 15 17  1  0  0  0
 17 18  2  0  0  0
 18 19  1  0  0  0
 19 20  2  0  0  0
 20 21  1  0  0  0
  5  6  1  0  0  0
  6  7  2  0  0  0
  3 22  1  0  0  0
 22 23  2  0  0  0
 23 24  1  0  0  0
 24 25  2  0  0  0
 25 26  1  0  0  0
 26 27  2  0  0  0
 26 28  1  0  0  0
 28 29  2  0  0  0
 29 30  1  0  0  0
 30 31  2  0  0  0
 31 32  1  0  0  0
 32 33  2  0  0  0
 32 34  1  0  0  0
 34 35  1  0  0  0
 34 36  2  0  0  0
 34 37  2  0  0  0
  6  1  1  0  0  0
 27 22  1  0  0  0
 33 28  1  0  0  0
 20 14  1  0  0  0
  8 12  1  0  0  0
 11 13  1  0  0  0
M  END
> <minimizedAffinity>
14.83474

> <CNNscore>
0.4664344192

> <CNNaffinity>
7.4581031799

> <CNN_VS>
3.4787161350

> <CNNaffinity_variance>
1.1954370737

$$$$
[H]c1nc([H])c(Cl)c(N([H])C(=O)N([H])c2c([H])c(-c3c([H])c([H])c([H])c(-c4c([H])c([H])c([H])c(S(=O)(=O)C([H])([H])[H])c4[H])c3[H])nn(C([H])([H])C([H])([H])[H])c2=O)c1Cl


 39 42  0  0  0  0  0  0  0  0999 V2000
   11.8030   49.0184  134.9719 N   0  0  0  0  0  0  0  0  0  0  0  0
   11.8167   47.7250  135.0225 N   0  0  0  0  0  0  0  0  0  0  0  0
   11.1006   46.9264  134.2144 C   0  0  0  0  0  0  0  0  0  0  0  0
   10.2900   47.5417  133.2585 C   0  0  0  0  0  0  0  0  0  0  0  0
   10.2652   48.9176  133.1929 C   0  0  0  0  0  0  0  0  0  0  0  0
   11.0460   49.6558  134.0778 C   0  0  0  0  0  0  0  0  0  0  0  0
   11.0069   50.9146  133.9985 O   0  0  0  0  0  0  0  0  0  0  0  0
    9.4851   49.6220  132.2712 N   0  0  0  0  0  0  0  0  0  0  0  0
    8.5073   49.1051  131.4447 C   0  0  0  0  0  0  0  0  0  0  0  0
    8.1701   47.9245  131.3946 O   0  0  0  0  0  0  0  0  0  0  0  0
    7.8033   49.9976  130.5533 N   0  0  0  0  0  0  0  0  0  0  0  0
    9.6473   50.6818  132.1799 H   0  0  0  0  0  0  0  0  0  0  0  0
    8.0409   51.0344  130.5413 H   0  0  0  0  0  0  0  0  0  0  0  0
    6.8008   49.4702  129.7045 C   0  0  0  0  0  0  0  0  0  0  0  0
    7.1807   48.5373  128.7586 C   0  0  0  0  0  0  0  0  0  0  0  0
    8.8580   48.0366  128.6333 Cl  0  0  0  0  0  0  0  0  0  0  0  0
    6.2272   48.0150  127.9269 C   0  0  0  0  0  0  0  0  0  0  0  0
    4.9374   48.4088  128.0337 N   0  0  0  0  0  0  0  0  0  0  0  0
    4.5428   49.3249  128.9570 C   0  0  0  0  0  0  0  0  0  0  0  0
    5.4663   49.8753  129.8123 C   0  0  0  0  0  0  0  0  0  0  0  0
    5.0032   51.0539  131.0110 Cl  0  0  0  0  0  0  0  0  0  0  0  0
   11.1731   45.4661  134.3385 C   0  0  0  0  0  0  0  0  0  0  0  0
   11.4738   44.7937  135.4886 C   0  0  0  0  0  0  0  0  0  0  0  0
   11.5319   43.4051  135.5588 C   0  0  0  0  0  0  0  0  0  0  0  0
   11.2708   42.6736  134.4005 C   0  0  0  0  0  0  0  0  0  0  0  0
   10.9685   43.3140  133.2395 C   0  0  0  0  0  0  0  0  0  0  0  0
   10.9202   44.7131  133.2105 C   0  0  0  0  0  0  0  0  0  0  0  0
   10.6956   42.5511  132.0260 C   0  0  0  0  0  0  0  0  0  0  0  0
   10.7649   41.1667  132.0418 C   0  0  0  0  0  0  0  0  0  0  0  0
   10.4970   40.4822  130.8626 C   0  0  0  0  0  0  0  0  0  0  0  0
   10.1699   41.1432  129.7000 C   0  0  0  0  0  0  0  0  0  0  0  0
   10.1035   42.5197  129.6948 C   0  0  0  0  0  0  0  0  0  0  0  0
   10.3669   43.2163  130.8586 C   0  0  0  0  0  0  0  0  0  0  0  0
    9.6972   43.4405  128.2694 S   0  0  0  0  0  0  0  0  0  0  0  0
   10.8352   44.7394  127.9383 C   0  0  0  0  0  0  0  0  0  0  0  0
    8.2785   43.9525  128.4622 O   0  0  0  0  0  0  0  0  0  0  0  0
    9.6201   42.4556  127.1244 O   0  0  0  0  0  0  0  0  0  0  0  0
   13.6644   49.0268  136.5803 C   0  0  0  0  0  0  0  0  0  0  0  0
   12.6094   49.8394  135.8836 C   0  0  0  0  0  0  0  0  0  0  0  0
 38 39  1  0  0  0
 39  1  1  0  0  0
  1  2  1  0  0  0
  2  3  2  0  0  0
  3  4  1  0  0  0
  4  5  2  0  0  0
  5  8  1  0  0  0
  8  9  1  0  0  0
  9 10  2  0  0  0
  9 11  1  0  0  0
 11 14  1  0  0  0
 14 15  2  0  0  0
 15 16  1  0  0  0
 15 17  1  0  0  0
 17 18  2  0  0  0
 18 19  1  0  0  0
 19 20  2  0  0  0
 20 21  1  0  0  0
  5  6  1  0  0  0
  6  7  2  0  0  0
  3 22  1  0  0  0
 22 23  2  0  0  0
 23 24  1  0  0  0
 24 25  2  0  0  0
 25 26  1  0  0  0
 26 27  2  0  0  0
 26 28  1  0  0  0
 28 29  2  0  0  0
 29 30  1  0  0  0
 30 31  2  0  0  0
 31 32  1  0  0  0
 32 33  2  0  0  0
 32 34  1  0  0  0
 34 35  1  0  0  0
 34 36  2  0  0  0
 34 37  2  0  0  0
  6  1  1  0  0  0
 27 22  1  0  0  0
 33 28  1  0  0  0
 20 14  1  0  0  0
  8 12  1  0  0  0
 11 13  1  0  0  0
M  END
> <minimizedAffinity>
20.82625

> <CNNscore>
0.4571009278

> <CNNaffinity>
7.9681816101

> <CNN_VS>
3.6422631741

> <CNNaffinity_variance>
0.8083117604

$$$$
[H]c1nc([H])c(Cl)c(N([H])C(=O)N([H])c2c([H])c(-c3c([H])c([H])c([H])c(-c4c([H])c([H])c([H])c(S(=O)(=O)C([H])([H])[H])c4[H])c3[H])nn(C([H])([H])C([H])([H])[H])c2=O)c1Cl


 39 42  0  0  0  0  0  0  0  0999 V2000
    6.8695   50.3967  129.5034 N   0  0  0  0  0  0  0  0  0  0  0  0
    7.6593   50.6634  130.4936 N   0  0  0  0  0  0  0  0  0  0  0  0
    8.3935   49.7479  131.1463 C   0  0  0  0  0  0  0  0  0  0  0  0
    8.2918   48.4219  130.7210 C   0  0  0  0  0  0  0  0  0  0  0  0
    7.4550   48.1230  129.6682 C   0  0  0  0  0  0  0  0  0  0  0  0
    6.7356   49.1467  129.0580 C   0  0  0  0  0  0  0  0  0  0  0  0
    5.9759   48.8486  128.0957 O   0  0  0  0  0  0  0  0  0  0  0  0
    7.2873   46.8264  129.1732 N   0  0  0  0  0  0  0  0  0  0  0  0
    8.1189   45.7441  129.3821 C   0  0  0  0  0  0  0  0  0  0  0  0
    9.1518   45.7594  130.0475 O   0  0  0  0  0  0  0  0  0  0  0  0
    7.7760   44.4747  128.7837 N   0  0  0  0  0  0  0  0  0  0  0  0
    6.4243   46.6283  128.5618 H   0  0  0  0  0  0  0  0  0  0  0  0
    6.8953   44.3850  128.1941 H   0  0  0  0  0  0  0  0  0  0  0  0
    8.6270   43.3637  128.9958 C   0  0  0  0  0  0  0  0  0  0  0  0
    9.4124   42.9410  127.9403 C   0  0  0  0  0  0  0  0  0  0  0  0
    9.3410   43.7717  126.3961 Cl  0  0  0  0  0  0  0  0  0  0  0  0
   10.2420   41.8679  128.1236 C   0  0  0  0  0  0  0  0  0  0  0  0
   10.2882   41.2362  129.3190 N   0  0  0  0  0  0  0  0  0  0  0  0
    9.5243   41.6358  130.3698 C   0  0  0  0  0  0  0  0  0  0  0  0
    8.6772   42.7083  130.2306 C   0  0  0  0  0  0  0  0  0  0  0  0
    7.6795   43.2539  131.5525 Cl  0  0  0  0  0  0  0  0  0  0  0  0
    9.2654   50.1346  132.2616 C   0  0  0  0  0  0  0  0  0  0  0  0
    9.3089   51.3783  132.8242 C   0  0  0  0  0  0  0  0  0  0  0  0
   10.1540   51.6999  133.8820 C   0  0  0  0  0  0  0  0  0  0  0  0
   10.9910   50.7042  134.3850 C   0  0  0  0  0  0  0  0  0  0  0  0
   10.9711   49.4558  133.8461 C   0  0  0  0  0  0  0  0  0  0  0  0
   10.1059   49.1724  132.7822 C   0  0  0  0  0  0  0  0  0  0  0  0
   11.8462   48.4124  134.3701 C   0  0  0  0  0  0  0  0  0  0  0  0
   12.9056   48.7425  135.2009 C   0  0  0  0  0  0  0  0  0  0  0  0
   13.7124   47.7156  135.6759 C   0  0  0  0  0  0  0  0  0  0  0  0
   13.4818   46.4000  135.3418 C   0  0  0  0  0  0  0  0  0  0  0  0
   12.4258   46.0824  134.5152 C   0  0  0  0  0  0  0  0  0  0  0  0
   11.6135   47.0910  134.0337 C   0  0  0  0  0  0  0  0  0  0  0  0
   12.0584   44.4443  134.0392 S   0  0  0  0  0  0  0  0  0  0  0  0
   11.2882   44.3394  132.4619 C   0  0  0  0  0  0  0  0  0  0  0  0
   11.1990   43.8450  135.1410 O   0  0  0  0  0  0  0  0  0  0  0  0
   13.3616   43.6782  134.0802 O   0  0  0  0  0  0  0  0  0  0  0  0
    6.9783   52.4608  128.1694 C   0  0  0  0  0  0  0  0  0  0  0  0
    6.0909   51.4424  128.8281 C   0  0  0  0  0  0  0  0  0  0  0  0
 38 39  1  0  0  0
 39  1  1  0  0  0
  1  2  1  0  0  0
  2  3  2  0  0  0
  3  4  1  0  0  0
  4  5  2  0  0  0
  5  8  1  0  0  0
  8  9  1  0  0  0
  9 10  2  0  0  0
  9 11  1  0  0  0
 11 14  1  0  0  0
 14 15  2  0  0  0
 15 16  1  0  0  0
 15 17  1  0  0  0
 17 18  2  0  0  0
 18 19  1  0  0  0
 19 20  2  0  0  0
 20 21  1  0  0  0
  5  6  1  0  0  0
  6  7  2  0  0  0
  3 22  1  0  0  0
 22 23  2  0  0  0
 23 24  1  0  0  0
 24 25  2  0  0  0
 25 26  1  0  0  0
 26 27  2  0  0  0
 26 28  1  0  0  0
 28 29  2  0  0  0
 29 30  1  0  0  0
 30 31  2  0  0  0
 31 32  1  0  0  0
 32 33  2  0  0  0
 32 34  1  0  0  0
 34 35  1  0  0  0
 34 36  2  0  0  0
 34 37  2  0  0  0
  6  1  1  0  0  0
 27 22  1  0  0  0
 33 28  1  0  0  0
 20 14  1  0  0  0
  8 12  1  0  0  0
 11 13  1  0  0  0
M  END
> <minimizedAffinity>
28.12471

> <CNNscore>
0.4510179162

> <CNNaffinity>
7.6256613731

> <CNN_VS>
3.4393098354

> <CNNaffinity_variance>
0.6961104870

$$$$
[H]c1nc([H])c(Cl)c(N([H])C(=O)N([H])c2c([H])c(-c3c([H])c([H])c([H])c(-c4c([H])c([H])c([H])c(S(=O)(=O)C([H])([H])[H])c4[H])c3[H])nn(C([H])([H])C([H])([H])[H])c2=O)c1Cl


 39 42  0  0  0  0  0  0  0  0999 V2000
   11.4693   43.7982  127.6202 N   0  0  0  0  0  0  0  0  0  0  0  0
   11.7749   43.5200  128.8469 N   0  0  0  0  0  0  0  0  0  0  0  0
   11.3678   44.2318  129.9103 C   0  0  0  0  0  0  0  0  0  0  0  0
   10.5610   45.3450  129.6666 C   0  0  0  0  0  0  0  0  0  0  0  0
   10.2276   45.6533  128.3659 C   0  0  0  0  0  0  0  0  0  0  0  0
   10.7018   44.8503  127.3325 C   0  0  0  0  0  0  0  0  0  0  0  0
   10.3830   45.1525  126.1496 O   0  0  0  0  0  0  0  0  0  0  0  0
    9.4268   46.7470  128.0240 N   0  0  0  0  0  0  0  0  0  0  0  0
    8.5809   47.4498  128.8589 C   0  0  0  0  0  0  0  0  0  0  0  0
    8.4019   47.2138  130.0516 O   0  0  0  0  0  0  0  0  0  0  0  0
    7.8299   48.5592  128.3186 N   0  0  0  0  0  0  0  0  0  0  0  0
    9.4575   47.0952  127.0063 H   0  0  0  0  0  0  0  0  0  0  0  0
    7.9337   48.8231  127.2934 H   0  0  0  0  0  0  0  0  0  0  0  0
    6.9616   49.2810  129.1723 C   0  0  0  0  0  0  0  0  0  0  0  0
    5.6007   49.1234  128.9921 C   0  0  0  0  0  0  0  0  0  0  0  0
    4.9917   48.0559  127.7394 Cl  0  0  0  0  0  0  0  0  0  0  0  0
    4.7431   49.8129  129.8062 C   0  0  0  0  0  0  0  0  0  0  0  0
    5.2250   50.6324  130.7686 N   0  0  0  0  0  0  0  0  0  0  0  0
    6.5597   50.8016  130.9624 C   0  0  0  0  0  0  0  0  0  0  0  0
    7.4566   50.1293  130.1683 C   0  0  0  0  0  0  0  0  0  0  0  0
    9.1769   50.3175  130.3826 Cl  0  0  0  0  0  0  0  0  0  0  0  0
   11.7605   43.8480  131.2711 C   0  0  0  0  0  0  0  0  0  0  0  0
   12.6906   42.8955  131.5765 C   0  0  0  0  0  0  0  0  0  0  0  0
   13.0308   42.5637  132.8844 C   0  0  0  0  0  0  0  0  0  0  0  0
   12.3904   43.2366  133.9246 C   0  0  0  0  0  0  0  0  0  0  0  0
   11.4596   44.1902  133.6530 C   0  0  0  0  0  0  0  0  0  0  0  0
   11.1454   44.4949  132.3229 C   0  0  0  0  0  0  0  0  0  0  0  0
   10.7877   44.8953  134.7394 C   0  0  0  0  0  0  0  0  0  0  0  0
   10.8942   44.4335  136.0421 C   0  0  0  0  0  0  0  0  0  0  0  0
   10.2372   45.1372  137.0441 C   0  0  0  0  0  0  0  0  0  0  0  0
    9.4957   46.2646  136.7704 C   0  0  0  0  0  0  0  0  0  0  0  0
    9.3962   46.7155  135.4720 C   0  0  0  0  0  0  0  0  0  0  0  0
   10.0431   46.0279  134.4632 C   0  0  0  0  0  0  0  0  0  0  0  0
    8.4794   48.1336  135.0322 S   0  0  0  0  0  0  0  0  0  0  0  0
    9.3991   49.2784  134.0650 C   0  0  0  0  0  0  0  0  0  0  0  0
    7.9698   48.7503  136.3252 O   0  0  0  0  0  0  0  0  0  0  0  0
    7.2476   47.6448  134.3037 O   0  0  0  0  0  0  0  0  0  0  0  0
   13.4420   43.0253  126.3699 C   0  0  0  0  0  0  0  0  0  0  0  0
   11.9451   42.9808  126.4972 C   0  0  0  0  0  0  0  0  0  0  0  0
 38 39  1  0  0  0
 39  1  1  0  0  0
  1  2  1  0  0  0
  2  3  2  0  0  0
  3  4  1  0  0  0
  4  5  2  0  0  0
  5  8  1  0  0  0
  8  9  1  0  0  0
  9 10  2  0  0  0
  9 11  1  0  0  0
 11 14  1  0  0  0
 14 15  2  0  0  0
 15 16  1  0  0  0
 15 17  1  0  0  0
 17 18  2  0  0  0
 18 19  1  0  0  0
 19 20  2  0  0  0
 20 21  1  0  0  0
  5  6  1  0  0  0
  6  7  2  0  0  0
  3 22  1  0  0  0
 22 23  2  0  0  0
 23 24  1  0  0  0
 24 25  2  0  0  0
 25 26  1  0  0  0
 26 27  2  0  0  0
 26 28  1  0  0  0
 28 29  2  0  0  0
 29 30  1  0  0  0
 30 31  2  0  0  0
 31 32  1  0  0  0
 32 33  2  0  0  0
 32 34  1  0  0  0
 34 35  1  0  0  0
 34 36  2  0  0  0
 34 37  2  0  0  0
  6  1  1  0  0  0
 27 22  1  0  0  0
 33 28  1  0  0  0
 20 14  1  0  0  0
  8 12  1  0  0  0
 11 13  1  0  0  0
M  END
> <minimizedAffinity>
26.06183

> <CNNscore>
0.4420858622

> <CNNaffinity>
7.7745490074

> <CNN_VS>
3.4370181561

> <CNNaffinity_variance>
1.1094412804

$$$$
[H]c1nc([H])c(Cl)c(N([H])C(=O)N([H])c2c([H])c(-c3c([H])c([H])c([H])c(-c4c([H])c([H])c([H])c(S(=O)(=O)C([H])([H])[H])c4[H])c3[H])nn(C([H])([H])C([H])([H])[H])c2=O)c1Cl


 39 42  0  0  0  0  0  0  0  0999 V2000
    9.7302   42.4088  127.6690 N   0  0  0  0  0  0  0  0  0  0  0  0
   10.0873   42.1432  128.8845 N   0  0  0  0  0  0  0  0  0  0  0  0
   10.0414   43.0229  129.8982 C   0  0  0  0  0  0  0  0  0  0  0  0
    9.5754   44.3077  129.6122 C   0  0  0  0  0  0  0  0  0  0  0  0
    9.1917   44.6047  128.3228 C   0  0  0  0  0  0  0  0  0  0  0  0
    9.2780   43.6203  127.3425 C   0  0  0  0  0  0  0  0  0  0  0  0
    8.9208   43.9159  126.1689 O   0  0  0  0  0  0  0  0  0  0  0  0
    8.7136   45.8618  127.9411 N   0  0  0  0  0  0  0  0  0  0  0  0
    8.1537   46.8211  128.7614 C   0  0  0  0  0  0  0  0  0  0  0  0
    7.9884   46.7107  129.9740 O   0  0  0  0  0  0  0  0  0  0  0  0
    7.7157   48.0683  128.1788 N   0  0  0  0  0  0  0  0  0  0  0  0
    8.7794   46.1313  126.9015 H   0  0  0  0  0  0  0  0  0  0  0  0
    7.8272   48.2359  127.1343 H   0  0  0  0  0  0  0  0  0  0  0  0
    7.1409   49.0532  129.0173 C   0  0  0  0  0  0  0  0  0  0  0  0
    7.9936   49.8379  129.7701 C   0  0  0  0  0  0  0  0  0  0  0  0
    9.7300   49.6036  129.6719 Cl  0  0  0  0  0  0  0  0  0  0  0  0
    7.4587   50.7960  130.5884 C   0  0  0  0  0  0  0  0  0  0  0  0
    6.1184   50.9671  130.6549 N   0  0  0  0  0  0  0  0  0  0  0  0
    5.2624   50.2061  129.9231 C   0  0  0  0  0  0  0  0  0  0  0  0
    5.7555   49.2327  129.0885 C   0  0  0  0  0  0  0  0  0  0  0  0
    4.6931   48.2339  128.1323 Cl  0  0  0  0  0  0  0  0  0  0  0  0
   10.4664   42.6405  131.2497 C   0  0  0  0  0  0  0  0  0  0  0  0
   11.0405   41.4460  131.5794 C   0  0  0  0  0  0  0  0  0  0  0  0
   11.4274   41.1263  132.8773 C   0  0  0  0  0  0  0  0  0  0  0  0
   11.2169   42.0715  133.8811 C   0  0  0  0  0  0  0  0  0  0  0  0
   10.6473   43.2702  133.5845 C   0  0  0  0  0  0  0  0  0  0  0  0
   10.2719   43.5534  132.2656 C   0  0  0  0  0  0  0  0  0  0  0  0
   10.4253   44.2605  134.6329 C   0  0  0  0  0  0  0  0  0  0  0  0
   10.7228   43.9582  135.9527 C   0  0  0  0  0  0  0  0  0  0  0  0
   10.4951   44.9323  136.9170 C   0  0  0  0  0  0  0  0  0  0  0  0
    9.9882   46.1701  136.5904 C   0  0  0  0  0  0  0  0  0  0  0  0
    9.6958   46.4608  135.2754 C   0  0  0  0  0  0  0  0  0  0  0  0
    9.9161   45.5038  134.3035 C   0  0  0  0  0  0  0  0  0  0  0  0
    9.0511   48.0013  134.7693 S   0  0  0  0  0  0  0  0  0  0  0  0
   10.2949   49.1431  134.2783 C   0  0  0  0  0  0  0  0  0  0  0  0
    8.2072   48.5277  135.9194 O   0  0  0  0  0  0  0  0  0  0  0  0
    8.0761   47.7163  133.6490 O   0  0  0  0  0  0  0  0  0  0  0  0
   10.3881   40.1094  127.0929 C   0  0  0  0  0  0  0  0  0  0  0  0
    9.8029   41.4035  126.6015 C   0  0  0  0  0  0  0  0  0  0  0  0
 38 39  1  0  0  0
 39  1  1  0  0  0
  1  2  1  0  0  0
  2  3  2  0  0  0
  3  4  1  0  0  0
  4  5  2  0  0  0
  5  8  1  0  0  0
  8  9  1  0  0  0
  9 10  2  0  0  0
  9 11  1  0  0  0
 11 14  1  0  0  0
 14 15  2  0  0  0
 15 16  1  0  0  0
 15 17  1  0  0  0
 17 18  2  0  0  0
 18 19  1  0  0  0
 19 20  2  0  0  0
 20 21  1  0  0  0
  5  6  1  0  0  0
  6  7  2  0  0  0
  3 22  1  0  0  0
 22 23  2  0  0  0
 23 24  1  0  0  0
 24 25  2  0  0  0
 25 26  1  0  0  0
 26 27  2  0  0  0
 26 28  1  0  0  0
 28 29  2  0  0  0
 29 30  1  0  0  0
 30 31  2  0  0  0
 31 32  1  0  0  0
 32 33  2  0  0  0
 32 34  1  0  0  0
 34 35  1  0  0  0
 34 36  2  0  0  0
 34 37  2  0  0  0
  6  1  1  0  0  0
 27 22  1  0  0  0
 33 28  1  0  0  0
 20 14  1  0  0  0
  8 12  1  0  0  0
 11 13  1  0  0  0
M  END
> <minimizedAffinity>
24.09205

> <CNNscore>
0.4367502034

> <CNNaffinity>
7.9861574173

> <CNN_VS>
3.4879558086

> <CNNaffinity_variance>
1.2073748112

$$$$
[H]c1nc([H])c(Cl)c(N([H])C(=O)N([H])c2c([H])c(-c3c([H])c([H])c([H])c(-c4c([H])c([H])c([H])c(S(=O)(=O)C([H])([H])[H])c4[H])c3[H])nn(C([H])([H])C([H])([H])[H])c2=O)c1Cl


 39 42  0  0  0  0  0  0  0  0999 V2000
    9.7290   42.3972  127.6584 N   0  0  0  0  0  0  0  0  0  0  0  0
   10.0896   42.1314  128.8728 N   0  0  0  0  0  0  0  0  0  0  0  0
   10.0414   43.0092  129.8880 C   0  0  0  0  0  0  0  0  0  0  0  0
    9.5689   44.2923  129.6049 C   0  0  0  0  0  0  0  0  0  0  0  0
    9.1815   44.5896  128.3167 C   0  0  0  0  0  0  0  0  0  0  0  0
    9.2706   43.6071  127.3346 C   0  0  0  0  0  0  0  0  0  0  0  0
    8.9099   43.9029  126.1622 O   0  0  0  0  0  0  0  0  0  0  0  0
    8.6969   45.8450  127.9379 N   0  0  0  0  0  0  0  0  0  0  0  0
    8.1729   46.8172  128.7667 C   0  0  0  0  0  0  0  0  0  0  0  0
    8.0516   46.7220  129.9858 O   0  0  0  0  0  0  0  0  0  0  0  0
    7.7209   48.0602  128.1858 N   0  0  0  0  0  0  0  0  0  0  0  0
    8.7261   46.1021  126.8934 H   0  0  0  0  0  0  0  0  0  0  0  0
    7.7950   48.2150  127.1360 H   0  0  0  0  0  0  0  0  0  0  0  0
    7.1829   49.0583  129.0330 C   0  0  0  0  0  0  0  0  0  0  0  0
    5.8088   49.1987  129.0739 C   0  0  0  0  0  0  0  0  0  0  0  0
    4.7838   48.1604  128.0987 Cl  0  0  0  0  0  0  0  0  0  0  0  0
    5.2676   50.1585  129.8859 C   0  0  0  0  0  0  0  0  0  0  0  0
    6.0684   50.9524  130.6332 N   0  0  0  0  0  0  0  0  0  0  0  0
    7.4219   50.8308  130.6077 C   0  0  0  0  0  0  0  0  0  0  0  0
    8.0082   49.8809  129.8069 C   0  0  0  0  0  0  0  0  0  0  0  0
    9.7404   49.6912  129.7438 Cl  0  0  0  0  0  0  0  0  0  0  0  0
   10.4706   42.6267  131.2381 C   0  0  0  0  0  0  0  0  0  0  0  0
   11.0510   41.4343  131.5648 C   0  0  0  0  0  0  0  0  0  0  0  0
   11.4418   41.1144  132.8615 C   0  0  0  0  0  0  0  0  0  0  0  0
   11.2285   42.0569  133.8672 C   0  0  0  0  0  0  0  0  0  0  0  0
   10.6526   43.2533  133.5737 C   0  0  0  0  0  0  0  0  0  0  0  0
   10.2736   43.5369  132.2559 C   0  0  0  0  0  0  0  0  0  0  0  0
   10.4278   44.2409  134.6241 C   0  0  0  0  0  0  0  0  0  0  0  0
   10.7362   43.9405  135.9418 C   0  0  0  0  0  0  0  0  0  0  0  0
   10.5052   44.9118  136.9082 C   0  0  0  0  0  0  0  0  0  0  0  0
    9.9847   46.1450  136.5855 C   0  0  0  0  0  0  0  0  0  0  0  0
    9.6815   46.4337  135.2725 C   0  0  0  0  0  0  0  0  0  0  0  0
    9.9049   45.4794  134.2987 C   0  0  0  0  0  0  0  0  0  0  0  0
    9.0192   47.9684  134.7715 S   0  0  0  0  0  0  0  0  0  0  0  0
   10.2439   49.1006  134.2146 C   0  0  0  0  0  0  0  0  0  0  0  0
    8.2235   48.5126  135.9474 O   0  0  0  0  0  0  0  0  0  0  0  0
    7.9992   47.6700  133.6957 O   0  0  0  0  0  0  0  0  0  0  0  0
   10.3493   40.0857  127.0893 C   0  0  0  0  0  0  0  0  0  0  0  0
    9.8044   41.3940  126.5891 C   0  0  0  0  0  0  0  0  0  0  0  0
 38 39  1  0  0  0
 39  1  1  0  0  0
  1  2  1  0  0  0
  2  3  2  0  0  0
  3  4  1  0  0  0
  4  5  2  0  0  0
  5  8  1  0  0  0
  8  9  1  0  0  0
  9 10  2  0  0  0
  9 11  1  0  0  0
 11 14  1  0  0  0
 14 15  2  0  0  0
 15 16  1  0  0  0
 15 17  1  0  0  0
 17 18  2  0  0  0
 18 19  1  0  0  0
 19 20  2  0  0  0
 20 21  1  0  0  0
  5  6  1  0  0  0
  6  7  2  0  0  0
  3 22  1  0  0  0
 22 23  2  0  0  0
 23 24  1  0  0  0
 24 25  2  0  0  0
 25 26  1  0  0  0
 26 27  2  0  0  0
 26 28  1  0  0  0
 28 29  2  0  0  0
 29 30  1  0  0  0
 30 31  2  0  0  0
 31 32  1  0  0  0
 32 33  2  0  0  0
 32 34  1  0  0  0
 34 35  1  0  0  0
 34 36  2  0  0  0
 34 37  2  0  0  0
  6  1  1  0  0  0
 27 22  1  0  0  0
 33 28  1  0  0  0
 20 14  1  0  0  0
  8 12  1  0  0  0
 11 13  1  0  0  0
M  END
> <minimizedAffinity>
23.96283

> <CNNscore>
0.4328556359

> <CNNaffinity>
7.9814386368

> <CNN_VS>
3.4548106194

> <CNNaffinity_variance>
1.1656377316

$$$$
[H]c1nc([H])c(Cl)c(N([H])C(=O)N([H])c2c([H])c(-c3c([H])c([H])c([H])c(-c4c([H])c([H])c([H])c(S(=O)(=O)C([H])([H])[H])c4[H])c3[H])nn(C([H])([H])C([H])([H])[H])c2=O)c1Cl


 39 42  0  0  0  0  0  0  0  0999 V2000
    6.0671   49.0839  129.7262 N   0  0  0  0  0  0  0  0  0  0  0  0
    7.0212   48.6988  130.5116 N   0  0  0  0  0  0  0  0  0  0  0  0
    8.0746   49.4577  130.8545 C   0  0  0  0  0  0  0  0  0  0  0  0
    8.1361   50.7476  130.3234 C   0  0  0  0  0  0  0  0  0  0  0  0
    7.1277   51.1713  129.4859 C   0  0  0  0  0  0  0  0  0  0  0  0
    6.0776   50.3060  129.1922 C   0  0  0  0  0  0  0  0  0  0  0  0
    5.1655   50.7164  128.4228 O   0  0  0  0  0  0  0  0  0  0  0  0
    7.1032   52.4432  128.9064 N   0  0  0  0  0  0  0  0  0  0  0  0
    7.0979   52.7412  127.5581 C   0  0  0  0  0  0  0  0  0  0  0  0
    7.1145   51.9159  126.6478 O   0  0  0  0  0  0  0  0  0  0  0  0
    7.0707   54.1265  127.1495 N   0  0  0  0  0  0  0  0  0  0  0  0
    7.0862   53.2957  129.5628 H   0  0  0  0  0  0  0  0  0  0  0  0
    7.0546   54.8972  127.8824 H   0  0  0  0  0  0  0  0  0  0  0  0
    7.0657   54.4347  125.7680 C   0  0  0  0  0  0  0  0  0  0  0  0
    5.8530   54.7360  125.1780 C   0  0  0  0  0  0  0  0  0  0  0  0
    4.3797   54.7317  126.1314 Cl  0  0  0  0  0  0  0  0  0  0  0  0
    5.8254   55.0362  123.8428 C   0  0  0  0  0  0  0  0  0  0  0  0
    6.9681   55.0365  123.1188 N   0  0  0  0  0  0  0  0  0  0  0  0
    8.1709   54.7431  123.6796 C   0  0  0  0  0  0  0  0  0  0  0  0
    8.2454   54.4359  125.0164 C   0  0  0  0  0  0  0  0  0  0  0  0
    9.7677   54.0531  125.7759 Cl  0  0  0  0  0  0  0  0  0  0  0  0
    9.1155   48.9436  131.7521 C   0  0  0  0  0  0  0  0  0  0  0  0
    9.7637   49.6822  132.7006 C   0  0  0  0  0  0  0  0  0  0  0  0
   10.7466   49.1512  133.5303 C   0  0  0  0  0  0  0  0  0  0  0  0
   11.0800   47.8051  133.3818 C   0  0  0  0  0  0  0  0  0  0  0  0
   10.4525   47.0433  132.4462 C   0  0  0  0  0  0  0  0  0  0  0  0
    9.4687   47.6156  131.6307 C   0  0  0  0  0  0  0  0  0  0  0  0
   10.7999   45.6349  132.2883 C   0  0  0  0  0  0  0  0  0  0  0  0
   11.7453   45.0522  133.1180 C   0  0  0  0  0  0  0  0  0  0  0  0
   12.0441   43.7081  132.9307 C   0  0  0  0  0  0  0  0  0  0  0  0
   11.4287   42.9588  131.9532 C   0  0  0  0  0  0  0  0  0  0  0  0
   10.4902   43.5476  131.1337 C   0  0  0  0  0  0  0  0  0  0  0  0
   10.1809   44.8831  131.3059 C   0  0  0  0  0  0  0  0  0  0  0  0
    9.6605   42.6765  129.8696 S   0  0  0  0  0  0  0  0  0  0  0  0
    9.8801   43.3922  128.2786 C   0  0  0  0  0  0  0  0  0  0  0  0
    8.1958   42.6021  130.2708 O   0  0  0  0  0  0  0  0  0  0  0  0
   10.1670   41.2525  129.9200 O   0  0  0  0  0  0  0  0  0  0  0  0
    5.3605   46.7681  129.2908 C   0  0  0  0  0  0  0  0  0  0  0  0
    4.9390   48.2074  129.3876 C   0  0  0  0  0  0  0  0  0  0  0  0
 38 39  1  0  0  0
 39  1  1  0  0  0
  1  2  1  0  0  0
  2  3  2  0  0  0
  3  4  1  0  0  0
  4  5  2  0  0  0
  5  8  1  0  0  0
  8  9  1  0  0  0
  9 10  2  0  0  0
  9 11  1  0  0  0
 11 14  1  0  0  0
 14 15  2  0  0  0
 15 16  1  0  0  0
 15 17  1  0  0  0
 17 18  2  0  0  0
 18 19  1  0  0  0
 19 20  2  0  0  0
 20 21  1  0  0  0
  5  6  1  0  0  0
  6  7  2  0  0  0
  3 22  1  0  0  0
 22 23  2  0  0  0
 23 24  1  0  0  0
 24 25  2  0  0  0
 25 26  1  0  0  0
 26 27  2  0  0  0
 26 28  1  0  0  0
 28 29  2  0  0  0
 29 30  1  0  0  0
 30 31  2  0  0  0
 31 32  1  0  0  0
 32 33  2  0  0  0
 32 34  1  0  0  0
 34 35  1  0  0  0
 34 36  2  0  0  0
 34 37  2  0  0  0
  6  1  1  0  0  0
 27 22  1  0  0  0
 33 28  1  0  0  0
 20 14  1  0  0  0
  8 12  1  0  0  0
 11 13  1  0  0  0
M  END
> <minimizedAffinity>
4.78962

> <CNNscore>
0.4290497303

> <CNNaffinity>
7.7024178505

> <CNN_VS>
3.3047204018

> <CNNaffinity_variance>
0.4859136045

$$$$
[H]c1nc([H])c(Cl)c(N([H])C(=O)N([H])c2c([H])c(-c3c([H])c([H])c([H])c(-c4c([H])c([H])c([H])c(S(=O)(=O)C([H])([H])[H])c4[H])c3[H])nn(C([H])([H])C([H])([H])[H])c2=O)c1Cl


 39 42  0  0  0  0  0  0  0  0999 V2000
    5.8439   48.4177  129.6174 N   0  0  0  0  0  0  0  0  0  0  0  0
    6.8480   47.6126  129.4789 N   0  0  0  0  0  0  0  0  0  0  0  0
    8.0447   47.9700  128.9854 C   0  0  0  0  0  0  0  0  0  0  0  0
    8.2074   49.3017  128.5986 C   0  0  0  0  0  0  0  0  0  0  0  0
    7.1474   50.1702  128.7402 C   0  0  0  0  0  0  0  0  0  0  0  0
    5.9464   49.6995  129.2633 C   0  0  0  0  0  0  0  0  0  0  0  0
    4.9899   50.5136  129.3836 O   0  0  0  0  0  0  0  0  0  0  0  0
    7.2152   51.5193  128.3803 N   0  0  0  0  0  0  0  0  0  0  0  0
    7.1613   52.0416  127.1032 C   0  0  0  0  0  0  0  0  0  0  0  0
    7.0438   51.3849  126.0712 O   0  0  0  0  0  0  0  0  0  0  0  0
    7.2475   53.4731  126.9303 N   0  0  0  0  0  0  0  0  0  0  0  0
    7.3204   52.2459  129.1670 H   0  0  0  0  0  0  0  0  0  0  0  0
    7.3500   54.1064  127.7787 H   0  0  0  0  0  0  0  0  0  0  0  0
    7.1930   54.0111  125.6221 C   0  0  0  0  0  0  0  0  0  0  0  0
    8.3578   54.0202  124.8787 C   0  0  0  0  0  0  0  0  0  0  0  0
    9.8445   53.3785  125.5553 Cl  0  0  0  0  0  0  0  0  0  0  0  0
    8.3276   54.5366  123.6114 C   0  0  0  0  0  0  0  0  0  0  0  0
    7.1752   55.0279  123.1010 N   0  0  0  0  0  0  0  0  0  0  0  0
    6.0188   55.0284  123.8153 C   0  0  0  0  0  0  0  0  0  0  0  0
    6.0030   54.5199  125.0914 C   0  0  0  0  0  0  0  0  0  0  0  0
    4.5418   54.5014  126.0427 Cl  0  0  0  0  0  0  0  0  0  0  0  0
    9.1324   46.9930  128.8608 C   0  0  0  0  0  0  0  0  0  0  0  0
   10.0093   46.9291  127.8156 C   0  0  0  0  0  0  0  0  0  0  0  0
   11.0268   45.9829  127.7397 C   0  0  0  0  0  0  0  0  0  0  0  0
   11.1513   45.0619  128.7797 C   0  0  0  0  0  0  0  0  0  0  0  0
   10.2935   45.0995  129.8343 C   0  0  0  0  0  0  0  0  0  0  0  0
    9.2827   46.0677  129.8730 C   0  0  0  0  0  0  0  0  0  0  0  0
   10.4212   44.1368  130.9233 C   0  0  0  0  0  0  0  0  0  0  0  0
   10.0391   42.8174  130.7366 C   0  0  0  0  0  0  0  0  0  0  0  0
   10.1787   41.9362  131.8019 C   0  0  0  0  0  0  0  0  0  0  0  0
   10.6808   42.3435  133.0175 C   0  0  0  0  0  0  0  0  0  0  0  0
   11.0580   43.6573  133.1928 C   0  0  0  0  0  0  0  0  0  0  0  0
   10.9259   44.5471  132.1441 C   0  0  0  0  0  0  0  0  0  0  0  0
   11.7038   44.2621  134.6968 S   0  0  0  0  0  0  0  0  0  0  0  0
   11.1380   43.3675  136.1010 C   0  0  0  0  0  0  0  0  0  0  0  0
   11.3457   45.7379  134.7712 O   0  0  0  0  0  0  0  0  0  0  0  0
   13.2101   44.2167  134.5713 O   0  0  0  0  0  0  0  0  0  0  0  0
    4.2832   46.5282  129.8315 C   0  0  0  0  0  0  0  0  0  0  0  0
    4.5579   47.9678  130.1644 C   0  0  0  0  0  0  0  0  0  0  0  0
 38 39  1  0  0  0
 39  1  1  0  0  0
  1  2  1  0  0  0
  2  3  2  0  0  0
  3  4  1  0  0  0
  4  5  2  0  0  0
  5  8  1  0  0  0
  8  9  1  0  0  0
  9 10  2  0  0  0
  9 11  1  0  0  0
 11 14  1  0  0  0
 14 15  2  0  0  0
 15 16  1  0  0  0
 15 17  1  0  0  0
 17 18  2  0  0  0
 18 19  1  0  0  0
 19 20  2  0  0  0
 20 21  1  0  0  0
  5  6  1  0  0  0
  6  7  2  0  0  0
  3 22  1  0  0  0
 22 23  2  0  0  0
 23 24  1  0  0  0
 24 25  2  0  0  0
 25 26  1  0  0  0
 26 27  2  0  0  0
 26 28  1  0  0  0
 28 29  2  0  0  0
 29 30  1  0  0  0
 30 31  2  0  0  0
 31 32  1  0  0  0
 32 33  2  0  0  0
 32 34  1  0  0  0
 34 35  1  0  0  0
 34 36  2  0  0  0
 34 37  2  0  0  0
  6  1  1  0  0  0
 27 22  1  0  0  0
 33 28  1  0  0  0
 20 14  1  0  0  0
  8 12  1  0  0  0
 11 13  1  0  0  0
M  END
> <minimizedAffinity>
14.32806

> <CNNscore>
0.4222098589

> <CNNaffinity>
7.3503546715

> <CNN_VS>
3.1033921242

> <CNNaffinity_variance>
0.6337283850

$$$$
[H]OC(=O)[C@@]([H])(N([H])C(=O)C([H])(C([H])([H])S[H])C([H])([H])c1c([H])c([H])c([H])c([H])c1[H])C([H])([H])c1c([H])c([H])c([H])c([H])c1[H]


 27 28  0  0  0  0  0  0  0  0999 V2000
    9.8408   44.7912  131.0265 N   0  0  0  0  0  0  0  0  0  0  0  0
   11.2389   44.6774  130.8057 C   0  0  0  0  0  0  0  0  0  0  0  0
   11.6581   44.6357  129.6034 O   0  0  0  0  0  0  0  0  0  0  0  0
    9.5023   44.8251  132.0137 H   0  0  0  0  0  0  0  0  0  0  0  0
    8.8907   44.8599  129.9101 C   0  0  0  0  0  0  0  0  0  0  0  0
    9.3963   43.3651  127.9559 O   0  0  0  0  0  0  0  0  0  0  0  0
    8.8848   43.5653  129.2062 C   0  0  0  0  0  0  0  0  0  0  0  0
    8.3708   42.5514  129.7832 O   0  0  0  0  0  0  0  0  0  0  0  0
    9.7303   42.4597  127.6465 H   0  0  0  0  0  0  0  0  0  0  0  0
    9.2207   46.0266  129.0547 C   0  0  0  0  0  0  0  0  0  0  0  0
    8.5146   47.2892  129.3573 C   0  0  0  0  0  0  0  0  0  0  0  0
    9.1571   48.4067  129.8448 C   0  0  0  0  0  0  0  0  0  0  0  0
    8.5073   49.5731  130.1248 C   0  0  0  0  0  0  0  0  0  0  0  0
    7.1518   49.6553  129.9174 C   0  0  0  0  0  0  0  0  0  0  0  0
    6.4710   48.5577  129.4299 C   0  0  0  0  0  0  0  0  0  0  0  0
    7.1352   47.4041  129.1568 C   0  0  0  0  0  0  0  0  0  0  0  0
   12.2000   44.6076  131.9291 C   0  0  0  0  0  0  0  0  0  0  0  0
   11.7959   43.5383  132.9224 C   0  0  0  0  0  0  0  0  0  0  0  0
   11.1453   42.0940  132.0254 S   0  0  0  0  0  0  0  0  0  0  0  0
   12.2056   41.4192  131.3825 H   0  0  0  0  0  0  0  0  0  0  0  0
   12.2642   45.9709  132.5695 C   0  0  0  0  0  0  0  0  0  0  0  0
   11.0311   46.3811  133.2441 C   0  0  0  0  0  0  0  0  0  0  0  0
   10.5217   45.6785  134.3169 C   0  0  0  0  0  0  0  0  0  0  0  0
    9.3628   46.0502  134.9660 C   0  0  0  0  0  0  0  0  0  0  0  0
    8.6598   47.1655  134.5508 C   0  0  0  0  0  0  0  0  0  0  0  0
    9.1649   47.8712  133.4789 C   0  0  0  0  0  0  0  0  0  0  0  0
   10.3211   47.5090  132.8234 C   0  0  0  0  0  0  0  0  0  0  0  0
  6  7  1  0  0  0
  7  8  2  0  0  0
  7  5  1  0  0  0
  5 10  1  0  0  0
 10 11  1  0  0  0
 11 12  2  0  0  0
 12 13  1  0  0  0
 13 14  2  0  0  0
 14 15  1  0  0  0
 15 16  2  0  0  0
  5  1  1  0  0  0
  1  2  1  0  0  0
  2  3  2  0  0  0
  2 17  1  0  0  0
 17 18  1  0  0  0
 18 19  1  0  0  0
 17 21  1  0  0  0
 21 22  1  0  0  0
 22 23  2  0  0  0
 23 24  1  0  0  0
 24 25  2  0  0  0
 25 26  1  0  0  0
 26 27  2  0  0  0
 16 11  1  0  0  0
 27 22  1  0  0  0
  6  9  1  0  0  0
  1  4  1  0  0  0
 19 20  1  0  0  0
M  END
> <minimizedAffinity>
-8.40082

> <CNNscore>
0.3859144151

> <CNNaffinity>
6.9955773354

> <CNN_VS>
2.6996941566

> <CNNaffinity_variance>
0.1188802347

$$$$
[H]OC(=O)[C@@]([H])(N([H])C(=O)C([H])(C([H])([H])S[H])C([H])([H])c1c([H])c([H])c([H])c([H])c1[H])C([H])([H])c1c([H])c([H])c([H])c([H])c1[H]


 27 28  0  0  0  0  0  0  0  0999 V2000
   10.0268   44.7914  130.9488 N   0  0  0  0  0  0  0  0  0  0  0  0
   11.4336   44.6841  131.1091 C   0  0  0  0  0  0  0  0  0  0  0  0
   12.1757   44.9304  130.1033 O   0  0  0  0  0  0  0  0  0  0  0  0
    9.4230   44.5886  131.7761 H   0  0  0  0  0  0  0  0  0  0  0  0
    9.4278   45.1746  129.6650 C   0  0  0  0  0  0  0  0  0  0  0  0
   10.7839   44.4774  127.6691 O   0  0  0  0  0  0  0  0  0  0  0  0
    9.8528   44.2129  128.6324 C   0  0  0  0  0  0  0  0  0  0  0  0
    9.3277   43.0514  128.6171 O   0  0  0  0  0  0  0  0  0  0  0  0
   11.3328   43.7463  127.2317 H   0  0  0  0  0  0  0  0  0  0  0  0
    9.7644   46.5888  129.3680 C   0  0  0  0  0  0  0  0  0  0  0  0
    8.6624   47.5677  129.4765 C   0  0  0  0  0  0  0  0  0  0  0  0
    7.3522   47.2536  129.1868 C   0  0  0  0  0  0  0  0  0  0  0  0
    6.3336   48.1556  129.2862 C   0  0  0  0  0  0  0  0  0  0  0  0
    6.6079   49.4391  129.6919 C   0  0  0  0  0  0  0  0  0  0  0  0
    7.9079   49.7939  129.9916 C   0  0  0  0  0  0  0  0  0  0  0  0
    8.9096   48.8818  129.8867 C   0  0  0  0  0  0  0  0  0  0  0  0
   12.0413   44.2977  132.4021 C   0  0  0  0  0  0  0  0  0  0  0  0
   11.1891   43.2689  133.1155 C   0  0  0  0  0  0  0  0  0  0  0  0
   10.8225   41.8942  131.9798 S   0  0  0  0  0  0  0  0  0  0  0  0
   11.9882   41.1241  131.7773 H   0  0  0  0  0  0  0  0  0  0  0  0
   12.2144   45.5489  133.2252 C   0  0  0  0  0  0  0  0  0  0  0  0
   10.9655   46.2489  133.5319 C   0  0  0  0  0  0  0  0  0  0  0  0
   10.6453   47.4551  132.9431 C   0  0  0  0  0  0  0  0  0  0  0  0
    9.4734   48.1285  133.2181 C   0  0  0  0  0  0  0  0  0  0  0  0
    8.5620   47.6018  134.1139 C   0  0  0  0  0  0  0  0  0  0  0  0
    8.8775   46.3963  134.7050 C   0  0  0  0  0  0  0  0  0  0  0  0
   10.0448   45.7154  134.4378 C   0  0  0  0  0  0  0  0  0  0  0  0
  6  7  1  0  0  0
  7  8  2  0  0  0
  7  5  1  0  0  0
  5 10  1  0  0  0
 10 11  1  0  0  0
 11 12  2  0  0  0
 12 13  1  0  0  0
 13 14  2  0  0  0
 14 15  1  0  0  0
 15 16  2  0  0  0
  5  1  1  0  0  0
  1  2  1  0  0  0
  2  3  2  0  0  0
  2 17  1  0  0  0
 17 18  1  0  0  0
 18 19  1  0  0  0
 17 21  1  0  0  0
 21 22  1  0  0  0
 22 23  2  0  0  0
 23 24  1  0  0  0
 24 25  2  0  0  0
 25 26  1  0  0  0
 26 27  2  0  0  0
 16 11  1  0  0  0
 27 22  1  0  0  0
  6  9  1  0  0  0
  1  4  1  0  0  0
 19 20  1  0  0  0
M  END
> <minimizedAffinity>
-7.86399

> <CNNscore>
0.3260211945

> <CNNaffinity>
6.9394836426

> <CNN_VS>
2.2624187469

> <CNNaffinity_variance>
0.0678374693

$$$$
[H]OC(=O)[C@@]([H])(N([H])C(=O)C([H])(C([H])([H])S[H])C([H])([H])c1c([H])c([H])c([H])c([H])c1[H])C([H])([H])c1c([H])c([H])c([H])c([H])c1[H]


 27 28  0  0  0  0  0  0  0  0999 V2000
   10.0790   44.5993  132.6066 N   0  0  0  0  0  0  0  0  0  0  0  0
   10.7585   45.8426  132.5128 C   0  0  0  0  0  0  0  0  0  0  0  0
   12.0179   45.8575  132.7049 O   0  0  0  0  0  0  0  0  0  0  0  0
    9.0470   44.5924  132.4483 H   0  0  0  0  0  0  0  0  0  0  0  0
   10.7939   43.3555  132.9160 C   0  0  0  0  0  0  0  0  0  0  0  0
   13.0731   43.5770  133.9479 O   0  0  0  0  0  0  0  0  0  0  0  0
   11.7111   43.5984  134.0436 C   0  0  0  0  0  0  0  0  0  0  0  0
   11.2222   43.8445  135.1949 O   0  0  0  0  0  0  0  0  0  0  0  0
   13.6685   44.0962  134.5828 H   0  0  0  0  0  0  0  0  0  0  0  0
   11.4486   42.8457  131.6860 C   0  0  0  0  0  0  0  0  0  0  0  0
   10.9660   43.3975  130.4026 C   0  0  0  0  0  0  0  0  0  0  0  0
   11.7352   44.2167  129.6047 C   0  0  0  0  0  0  0  0  0  0  0  0
   11.2917   44.7271  128.4199 C   0  0  0  0  0  0  0  0  0  0  0  0
   10.0243   44.4212  127.9872 C   0  0  0  0  0  0  0  0  0  0  0  0
    9.2219   43.6037  128.7576 C   0  0  0  0  0  0  0  0  0  0  0  0
    9.6808   43.1045  129.9352 C   0  0  0  0  0  0  0  0  0  0  0  0
   10.0410   47.0990  132.2012 C   0  0  0  0  0  0  0  0  0  0  0  0
    8.7513   47.1962  132.9891 C   0  0  0  0  0  0  0  0  0  0  0  0
    9.0831   46.8281  134.7408 S   0  0  0  0  0  0  0  0  0  0  0  0
    9.7886   47.9024  135.3246 H   0  0  0  0  0  0  0  0  0  0  0  0
    9.7927   47.1345  130.7146 C   0  0  0  0  0  0  0  0  0  0  0  0
    8.6846   48.0005  130.3068 C   0  0  0  0  0  0  0  0  0  0  0  0
    7.5849   47.5058  129.6362 C   0  0  0  0  0  0  0  0  0  0  0  0
    6.5311   48.3053  129.2454 C   0  0  0  0  0  0  0  0  0  0  0  0
    6.5457   49.6597  129.5209 C   0  0  0  0  0  0  0  0  0  0  0  0
    7.6428   50.1590  130.1911 C   0  0  0  0  0  0  0  0  0  0  0  0
    8.7006   49.3698  130.5859 C   0  0  0  0  0  0  0  0  0  0  0  0
  6  7  1  0  0  0
  7  8  2  0  0  0
  7  5  1  0  0  0
  5 10  1  0  0  0
 10 11  1  0  0  0
 11 12  2  0  0  0
 12 13  1  0  0  0
 13 14  2  0  0  0
 14 15  1  0  0  0
 15 16  2  0  0  0
  5  1  1  0  0  0
  1  2  1  0  0  0
  2  3  2  0  0  0
  2 17  1  0  0  0
 17 18  1  0  0  0
 18 19  1  0  0  0
 17 21  1  0  0  0
 21 22  1  0  0  0
 22 23  2  0  0  0
 23 24  1  0  0  0
 24 25  2  0  0  0
 25 26  1  0  0  0
 26 27  2  0  0  0
 16 11  1  0  0  0
 27 22  1  0  0  0
  6  9  1  0  0  0
  1  4  1  0  0  0
 19 20  1  0  0  0
M  END
> <minimizedAffinity>
-8.37540

> <CNNscore>
0.3096302152

> <CNNaffinity>
6.7733678818

> <CNN_VS>
2.0972392559

> <CNNaffinity_variance>
0.0961866528

$$$$
[H]OC(=O)[C@@]([H])(N([H])C(=O)C([H])(C([H])([H])S[H])C([H])([H])c1c([H])c([H])c([H])c([H])c1[H])C([H])([H])c1c([H])c([H])c([H])c([H])c1[H]


 27 28  0  0  0  0  0  0  0  0999 V2000
   10.0103   44.5257  132.6327 N   0  0  0  0  0  0  0  0  0  0  0  0
   10.7285   45.7471  132.5399 C   0  0  0  0  0  0  0  0  0  0  0  0
   11.9855   45.7246  132.7462 O   0  0  0  0  0  0  0  0  0  0  0  0
    8.9804   44.5493  132.4627 H   0  0  0  0  0  0  0  0  0  0  0  0
   10.6833   43.2624  132.9568 C   0  0  0  0  0  0  0  0  0  0  0  0
   13.0292   43.4767  133.8284 O   0  0  0  0  0  0  0  0  0  0  0  0
   11.6770   43.5077  134.0170 C   0  0  0  0  0  0  0  0  0  0  0  0
   11.2696   43.7656  135.1971 O   0  0  0  0  0  0  0  0  0  0  0  0
   13.6697   43.9967  134.4169 H   0  0  0  0  0  0  0  0  0  0  0  0
   11.2381   42.6683  131.7155 C   0  0  0  0  0  0  0  0  0  0  0  0
   10.8601   43.3201  130.4440 C   0  0  0  0  0  0  0  0  0  0  0  0
   11.7009   44.1730  129.7624 C   0  0  0  0  0  0  0  0  0  0  0  0
   11.3540   44.7757  128.5887 C   0  0  0  0  0  0  0  0  0  0  0  0
   10.1149   44.5327  128.0475 C   0  0  0  0  0  0  0  0  0  0  0  0
    9.2430   43.6841  128.6997 C   0  0  0  0  0  0  0  0  0  0  0  0
    9.6060   43.0928  129.8680 C   0  0  0  0  0  0  0  0  0  0  0  0
   10.0533   47.0230  132.2135 C   0  0  0  0  0  0  0  0  0  0  0  0
    9.8588   47.8665  133.4561 C   0  0  0  0  0  0  0  0  0  0  0  0
    8.9354   46.9091  134.6991 S   0  0  0  0  0  0  0  0  0  0  0  0
    9.7675   45.9023  135.2347 H   0  0  0  0  0  0  0  0  0  0  0  0
    8.7407   46.6957  131.5481 C   0  0  0  0  0  0  0  0  0  0  0  0
    8.2456   47.7347  130.6429 C   0  0  0  0  0  0  0  0  0  0  0  0
    8.1996   49.0622  131.0167 C   0  0  0  0  0  0  0  0  0  0  0  0
    7.7381   50.0549  130.1777 C   0  0  0  0  0  0  0  0  0  0  0  0
    7.2971   49.7417  128.9057 C   0  0  0  0  0  0  0  0  0  0  0  0
    7.3412   48.4162  128.5274 C   0  0  0  0  0  0  0  0  0  0  0  0
    7.7999   47.4168  129.3571 C   0  0  0  0  0  0  0  0  0  0  0  0
  6  7  1  0  0  0
  7  8  2  0  0  0
  7  5  1  0  0  0
  5 10  1  0  0  0
 10 11  1  0  0  0
 11 12  2  0  0  0
 12 13  1  0  0  0
 13 14  2  0  0  0
 14 15  1  0  0  0
 15 16  2  0  0  0
  5  1  1  0  0  0
  1  2  1  0  0  0
  2  3  2  0  0  0
  2 17  1  0  0  0
 17 18  1  0  0  0
 18 19  1  0  0  0
 17 21  1  0  0  0
 21 22  1  0  0  0
 22 23  2  0  0  0
 23 24  1  0  0  0
 24 25  2  0  0  0
 25 26  1  0  0  0
 26 27  2  0  0  0
 16 11  1  0  0  0
 27 22  1  0  0  0
  6  9  1  0  0  0
  1  4  1  0  0  0
 19 20  1  0  0  0
M  END
> <minimizedAffinity>
-8.57820

> <CNNscore>
0.2778787911

> <CNNaffinity>
6.6630277634

> <CNN_VS>
1.8515141010

> <CNNaffinity_variance>
0.1284809858

$$$$
[H]OC(=O)[C@@]([H])(N([H])C(=O)C([H])(C([H])([H])S[H])C([H])([H])c1c([H])c([H])c([H])c([H])c1[H])C([H])([H])c1c([H])c([H])c([H])c([H])c1[H]


 27 28  0  0  0  0  0  0  0  0999 V2000
    8.7438   47.7946  129.9064 N   0  0  0  0  0  0  0  0  0  0  0  0
    8.4204   46.4244  129.7213 C   0  0  0  0  0  0  0  0  0  0  0  0
    7.2959   46.0070  130.1506 O   0  0  0  0  0  0  0  0  0  0  0  0
    9.6666   48.1318  129.5527 H   0  0  0  0  0  0  0  0  0  0  0  0
    7.8183   48.7183  130.5726 C   0  0  0  0  0  0  0  0  0  0  0  0
    7.3088   49.4825  128.2348 O   0  0  0  0  0  0  0  0  0  0  0  0
    7.3186   49.6907  129.5845 C   0  0  0  0  0  0  0  0  0  0  0  0
    6.8626   50.8083  129.9943 O   0  0  0  0  0  0  0  0  0  0  0  0
    6.6503   49.9471  127.6204 H   0  0  0  0  0  0  0  0  0  0  0  0
    8.4894   49.3231  131.7496 C   0  0  0  0  0  0  0  0  0  0  0  0
    9.1058   48.3869  132.7130 C   0  0  0  0  0  0  0  0  0  0  0  0
    8.3681   47.6388  133.6048 C   0  0  0  0  0  0  0  0  0  0  0  0
    8.9350   46.7742  134.4948 C   0  0  0  0  0  0  0  0  0  0  0  0
   10.3010   46.6301  134.5169 C   0  0  0  0  0  0  0  0  0  0  0  0
   11.0758   47.3617  133.6393 C   0  0  0  0  0  0  0  0  0  0  0  0
   10.4934   48.2182  132.7598 C   0  0  0  0  0  0  0  0  0  0  0  0
    9.3513   45.4898  129.0502 C   0  0  0  0  0  0  0  0  0  0  0  0
    8.8158   44.0736  129.0845 C   0  0  0  0  0  0  0  0  0  0  0  0
    9.8265   43.0181  127.9989 S   0  0  0  0  0  0  0  0  0  0  0  0
   11.0883   42.7993  128.5928 H   0  0  0  0  0  0  0  0  0  0  0  0
   10.6904   45.5986  129.7341 C   0  0  0  0  0  0  0  0  0  0  0  0
   10.8196   44.7844  130.9443 C   0  0  0  0  0  0  0  0  0  0  0  0
    9.7176   44.3857  131.6727 C   0  0  0  0  0  0  0  0  0  0  0  0
    9.8192   43.6177  132.8138 C   0  0  0  0  0  0  0  0  0  0  0  0
   11.0589   43.2143  133.2731 C   0  0  0  0  0  0  0  0  0  0  0  0
   12.1635   43.6103  132.5484 C   0  0  0  0  0  0  0  0  0  0  0  0
   12.0736   44.3773  131.4076 C   0  0  0  0  0  0  0  0  0  0  0  0
  6  7  1  0  0  0
  7  8  2  0  0  0
  7  5  1  0  0  0
  5 10  1  0  0  0
 10 11  1  0  0  0
 11 12  2  0  0  0
 12 13  1  0  0  0
 13 14  2  0  0  0
 14 15  1  0  0  0
 15 16  2  0  0  0
  5  1  1  0  0  0
  1  2  1  0  0  0
  2  3  2  0  0  0
  2 17  1  0  0  0
 17 18  1  0  0  0
 18 19  1  0  0  0
 17 21  1  0  0  0
 21 22  1  0  0  0
 22 23  2  0  0  0
 23 24  1  0  0  0
 24 25  2  0  0  0
 25 26  1  0  0  0
 26 27  2  0  0  0
 16 11  1  0  0  0
 27 22  1  0  0  0
  6  9  1  0  0  0
  1  4  1  0  0  0
 19 20  1  0  0  0
M  END
> <minimizedAffinity>
-6.71654

> <CNNscore>
0.2495285869

> <CNNaffinity>
6.8201966286

> <CNN_VS>
1.7018340826

> <CNNaffinity_variance>
0.0469868891

$$$$
[H]OC(=O)[C@@]([H])(N([H])C(=O)C([H])(C([H])([H])S[H])C([H])([H])c1c([H])c([H])c([H])c([H])c1[H])C([H])([H])c1c([H])c([H])c([H])c([H])c1[H]


 27 28  0  0  0  0  0  0  0  0999 V2000
   10.5536   44.7253  131.4604 N   0  0  0  0  0  0  0  0  0  0  0  0
   10.2312   45.3790  130.2418 C   0  0  0  0  0  0  0  0  0  0  0  0
   11.1718   45.9416  129.5922 O   0  0  0  0  0  0  0  0  0  0  0  0
    9.7793   44.2657  131.9891 H   0  0  0  0  0  0  0  0  0  0  0  0
   11.9288   44.6897  131.9717 C   0  0  0  0  0  0  0  0  0  0  0  0
   13.0752   43.0666  133.5080 O   0  0  0  0  0  0  0  0  0  0  0  0
   12.2144   43.3374  132.4830 C   0  0  0  0  0  0  0  0  0  0  0  0
   11.6322   42.3387  131.9458 O   0  0  0  0  0  0  0  0  0  0  0  0
   12.9842   42.2399  134.0870 H   0  0  0  0  0  0  0  0  0  0  0  0
   12.1126   45.7770  132.9644 C   0  0  0  0  0  0  0  0  0  0  0  0
   10.8829   46.3850  133.5148 C   0  0  0  0  0  0  0  0  0  0  0  0
   10.3822   47.5903  133.0723 C   0  0  0  0  0  0  0  0  0  0  0  0
    9.2476   48.1532  133.5789 C   0  0  0  0  0  0  0  0  0  0  0  0
    8.5604   47.5032  134.5752 C   0  0  0  0  0  0  0  0  0  0  0  0
    9.0291   46.2932  135.0462 C   0  0  0  0  0  0  0  0  0  0  0  0
   10.1613   45.7478  134.5294 C   0  0  0  0  0  0  0  0  0  0  0  0
    8.8456   45.4172  129.7232 C   0  0  0  0  0  0  0  0  0  0  0  0
    8.4573   44.0853  129.1160 C   0  0  0  0  0  0  0  0  0  0  0  0
    9.8585   43.4247  128.1597 S   0  0  0  0  0  0  0  0  0  0  0  0
   10.8694   42.9870  129.0425 H   0  0  0  0  0  0  0  0  0  0  0  0
    8.7576   46.5374  128.7180 C   0  0  0  0  0  0  0  0  0  0  0  0
    8.1516   47.7666  129.2336 C   0  0  0  0  0  0  0  0  0  0  0  0
    8.8931   48.7143  129.9089 C   0  0  0  0  0  0  0  0  0  0  0  0
    8.3404   49.8786  130.4003 C   0  0  0  0  0  0  0  0  0  0  0  0
    6.9938   50.1371  130.2264 C   0  0  0  0  0  0  0  0  0  0  0  0
    6.2484   49.1929  129.5520 C   0  0  0  0  0  0  0  0  0  0  0  0
    6.7899   48.0268  129.0572 C   0  0  0  0  0  0  0  0  0  0  0  0
  6  7  1  0  0  0
  7  8  2  0  0  0
  7  5  1  0  0  0
  5 10  1  0  0  0
 10 11  1  0  0  0
 11 12  2  0  0  0
 12 13  1  0  0  0
 13 14  2  0  0  0
 14 15  1  0  0  0
 15 16  2  0  0  0
  5  1  1  0  0  0
  1  2  1  0  0  0
  2  3  2  0  0  0
  2 17  1  0  0  0
 17 18  1  0  0  0
 18 19  1  0  0  0
 17 21  1  0  0  0
 21 22  1  0  0  0
 22 23  2  0  0  0
 23 24  1  0  0  0
 24 25  2  0  0  0
 25 26  1  0  0  0
 26 27  2  0  0  0
 16 11  1  0  0  0
 27 22  1  0  0  0
  6  9  1  0  0  0
  1  4  1  0  0  0
 19 20  1  0  0  0
M  END
> <minimizedAffinity>
-7.44164

> <CNNscore>
0.2382923514

> <CNNaffinity>
6.6738023758

> <CNN_VS>
1.5903160572

> <CNNaffinity_variance>
0.1690792292

$$$$
[H]OC(=O)[C@@]([H])(N([H])C(=O)C([H])(C([H])([H])S[H])C([H])([H])c1c([H])c([H])c([H])c([H])c1[H])C([H])([H])c1c([H])c([H])c([H])c([H])c1[H]


 27 28  0  0  0  0  0  0  0  0999 V2000
    9.7702   46.2301  131.2534 N   0  0  0  0  0  0  0  0  0  0  0  0
    8.8673   46.2687  132.3486 C   0  0  0  0  0  0  0  0  0  0  0  0
    7.6569   45.9279  132.1445 O   0  0  0  0  0  0  0  0  0  0  0  0
   10.7612   46.5103  131.4258 H   0  0  0  0  0  0  0  0  0  0  0  0
    9.3362   45.8111  129.9155 C   0  0  0  0  0  0  0  0  0  0  0  0
    9.8252   43.5617  128.9106 O   0  0  0  0  0  0  0  0  0  0  0  0
   10.2410   44.7553  129.4276 C   0  0  0  0  0  0  0  0  0  0  0  0
   11.5001   44.9465  129.4846 O   0  0  0  0  0  0  0  0  0  0  0  0
   10.3863   43.0313  128.2542 H   0  0  0  0  0  0  0  0  0  0  0  0
    9.2429   47.0008  129.0338 C   0  0  0  0  0  0  0  0  0  0  0  0
    8.0482   47.8550  129.1999 C   0  0  0  0  0  0  0  0  0  0  0  0
    8.1242   49.1891  129.5369 C   0  0  0  0  0  0  0  0  0  0  0  0
    7.0228   49.9793  129.6907 C   0  0  0  0  0  0  0  0  0  0  0  0
    5.7741   49.4375  129.5052 C   0  0  0  0  0  0  0  0  0  0  0  0
    5.6551   48.1045  129.1667 C   0  0  0  0  0  0  0  0  0  0  0  0
    6.7636   47.3328  129.0177 C   0  0  0  0  0  0  0  0  0  0  0  0
    9.3013   46.6909  133.6991 C   0  0  0  0  0  0  0  0  0  0  0  0
   10.4379   47.6883  133.6160 C   0  0  0  0  0  0  0  0  0  0  0  0
    9.8484   49.2121  132.8131 S   0  0  0  0  0  0  0  0  0  0  0  0
    8.9952   49.9114  133.6939 H   0  0  0  0  0  0  0  0  0  0  0  0
    9.6963   45.4549  134.4666 C   0  0  0  0  0  0  0  0  0  0  0  0
   10.3825   44.4391  133.6657 C   0  0  0  0  0  0  0  0  0  0  0  0
   11.7386   44.5028  133.4187 C   0  0  0  0  0  0  0  0  0  0  0  0
   12.4026   43.5549  132.6683 C   0  0  0  0  0  0  0  0  0  0  0  0
   11.7121   42.4863  132.1281 C   0  0  0  0  0  0  0  0  0  0  0  0
   10.3565   42.4182  132.3723 C   0  0  0  0  0  0  0  0  0  0  0  0
    9.6833   43.3591  133.1200 C   0  0  0  0  0  0  0  0  0  0  0  0
  6  7  1  0  0  0
  7  8  2  0  0  0
  7  5  1  0  0  0
  5 10  1  0  0  0
 10 11  1  0  0  0
 11 12  2  0  0  0
 12 13  1  0  0  0
 13 14  2  0  0  0
 14 15  1  0  0  0
 15 16  2  0  0  0
  5  1  1  0  0  0
  1  2  1  0  0  0
  2  3  2  0  0  0
  2 17  1  0  0  0
 17 18  1  0  0  0
 18 19  1  0  0  0
 17 21  1  0  0  0
 21 22  1  0  0  0
 22 23  2  0  0  0
 23 24  1  0  0  0
 24 25  2  0  0  0
 25 26  1  0  0  0
 26 27  2  0  0  0
 16 11  1  0  0  0
 27 22  1  0  0  0
  6  9  1  0  0  0
  1  4  1  0  0  0
 19 20  1  0  0  0
M  END
> <minimizedAffinity>
-7.54133

> <CNNscore>
0.2311235964

> <CNNaffinity>
6.4845137596

> <CNN_VS>
1.4987241030

> <CNNaffinity_variance>
0.2912432849

$$$$
[H]OC(=O)[C@@]([H])(N([H])C(=O)C([H])(C([H])([H])S[H])C([H])([H])c1c([H])c([H])c([H])c([H])c1[H])C([H])([H])c1c([H])c([H])c([H])c([H])c1[H]


 27 28  0  0  0  0  0  0  0  0999 V2000
    9.1311   45.4511  129.7484 N   0  0  0  0  0  0  0  0  0  0  0  0
    8.6976   46.7678  129.4409 C   0  0  0  0  0  0  0  0  0  0  0  0
    9.0786   47.2867  128.3416 O   0  0  0  0  0  0  0  0  0  0  0  0
    8.8160   45.0302  130.6506 H   0  0  0  0  0  0  0  0  0  0  0  0
    9.9954   44.6947  128.8348 C   0  0  0  0  0  0  0  0  0  0  0  0
    8.5598   42.7616  129.5498 O   0  0  0  0  0  0  0  0  0  0  0  0
    9.4663   43.3261  128.6985 C   0  0  0  0  0  0  0  0  0  0  0  0
    9.8697   42.6020  127.7300 O   0  0  0  0  0  0  0  0  0  0  0  0
    7.9357   42.0176  129.2600 H   0  0  0  0  0  0  0  0  0  0  0  0
   11.3988   44.7699  129.3104 C   0  0  0  0  0  0  0  0  0  0  0  0
   11.6292   44.4764  130.7405 C   0  0  0  0  0  0  0  0  0  0  0  0
   11.3742   43.2436  131.3011 C   0  0  0  0  0  0  0  0  0  0  0  0
   11.5861   42.9706  132.6208 C   0  0  0  0  0  0  0  0  0  0  0  0
   12.0753   43.9570  133.4424 C   0  0  0  0  0  0  0  0  0  0  0  0
   12.3438   45.2060  132.9193 C   0  0  0  0  0  0  0  0  0  0  0  0
   12.1265   45.4595  131.6022 C   0  0  0  0  0  0  0  0  0  0  0  0
    7.8262   47.5337  130.3598 C   0  0  0  0  0  0  0  0  0  0  0  0
    6.9510   48.5039  129.5941 C   0  0  0  0  0  0  0  0  0  0  0  0
    7.2252   50.1908  130.2213 S   0  0  0  0  0  0  0  0  0  0  0  0
    8.4934   50.6501  129.8050 H   0  0  0  0  0  0  0  0  0  0  0  0
    8.7105   48.2424  131.3541 C   0  0  0  0  0  0  0  0  0  0  0  0
    8.9605   47.4902  132.5853 C   0  0  0  0  0  0  0  0  0  0  0  0
    8.2743   46.3298  132.8796 C   0  0  0  0  0  0  0  0  0  0  0  0
    8.4971   45.6070  134.0331 C   0  0  0  0  0  0  0  0  0  0  0  0
    9.4378   46.0342  134.9512 C   0  0  0  0  0  0  0  0  0  0  0  0
   10.1264   47.1935  134.6615 C   0  0  0  0  0  0  0  0  0  0  0  0
    9.9119   47.9232  133.5128 C   0  0  0  0  0  0  0  0  0  0  0  0
  6  7  1  0  0  0
  7  8  2  0  0  0
  7  5  1  0  0  0
  5 10  1  0  0  0
 10 11  1  0  0  0
 11 12  2  0  0  0
 12 13  1  0  0  0
 13 14  2  0  0  0
 14 15  1  0  0  0
 15 16  2  0  0  0
  5  1  1  0  0  0
  1  2  1  0  0  0
  2  3  2  0  0  0
  2 17  1  0  0  0
 17 18  1  0  0  0
 18 19  1  0  0  0
 17 21  1  0  0  0
 21 22  1  0  0  0
 22 23  2  0  0  0
 23 24  1  0  0  0
 24 25  2  0  0  0
 25 26  1  0  0  0
 26 27  2  0  0  0
 16 11  1  0  0  0
 27 22  1  0  0  0
  6  9  1  0  0  0
  1  4  1  0  0  0
 19 20  1  0  0  0
M  END
> <minimizedAffinity>
-7.79100

> <CNNscore>
0.2219936401

> <CNNaffinity>
6.7131590843

> <CNN_VS>
1.4902786016

> <CNNaffinity_variance>
0.1798316836

$$$$
[H]OC(=O)[C@@]([H])(N([H])C(=O)C([H])(C([H])([H])S[H])C([H])([H])c1c([H])c([H])c([H])c([H])c1[H])C([H])([H])c1c([H])c([H])c([H])c([H])c1[H]


 27 28  0  0  0  0  0  0  0  0999 V2000
    9.7966   46.2518  131.2592 N   0  0  0  0  0  0  0  0  0  0  0  0
    8.8963   46.2855  132.3568 C   0  0  0  0  0  0  0  0  0  0  0  0
    7.6918   45.9201  132.1601 O   0  0  0  0  0  0  0  0  0  0  0  0
   10.7827   46.5521  131.4256 H   0  0  0  0  0  0  0  0  0  0  0  0
    9.3666   45.8103  129.9273 C   0  0  0  0  0  0  0  0  0  0  0  0
   11.6493   44.8926  129.4214 O   0  0  0  0  0  0  0  0  0  0  0  0
   10.2897   44.7666  129.4478 C   0  0  0  0  0  0  0  0  0  0  0  0
    9.8089   43.6652  129.0226 O   0  0  0  0  0  0  0  0  0  0  0  0
   12.2680   44.0910  129.4628 H   0  0  0  0  0  0  0  0  0  0  0  0
    9.2483   46.9886  129.0332 C   0  0  0  0  0  0  0  0  0  0  0  0
    8.0362   47.8195  129.1911 C   0  0  0  0  0  0  0  0  0  0  0  0
    6.7621   47.3232  129.0196 C   0  0  0  0  0  0  0  0  0  0  0  0
    5.6421   48.0884  129.1647 C   0  0  0  0  0  0  0  0  0  0  0  0
    5.7714   49.4152  129.4966 C   0  0  0  0  0  0  0  0  0  0  0  0
    7.0308   49.9510  129.6772 C   0  0  0  0  0  0  0  0  0  0  0  0
    8.1351   49.1732  129.5284 C   0  0  0  0  0  0  0  0  0  0  0  0
    9.3263   46.7303  133.7013 C   0  0  0  0  0  0  0  0  0  0  0  0
   10.4491   47.7418  133.6042 C   0  0  0  0  0  0  0  0  0  0  0  0
    9.8330   49.2547  132.8008 S   0  0  0  0  0  0  0  0  0  0  0  0
    8.9788   49.9464  133.6865 H   0  0  0  0  0  0  0  0  0  0  0  0
    9.7389   45.5093  134.4834 C   0  0  0  0  0  0  0  0  0  0  0  0
   10.4193   44.4839  133.6899 C   0  0  0  0  0  0  0  0  0  0  0  0
    9.7395   43.4080  133.1567 C   0  0  0  0  0  0  0  0  0  0  0  0
   10.3626   42.4333  132.4056 C   0  0  0  0  0  0  0  0  0  0  0  0
   11.7205   42.5073  132.1584 C   0  0  0  0  0  0  0  0  0  0  0  0
   12.4045   43.5808  132.6892 C   0  0  0  0  0  0  0  0  0  0  0  0
   11.7923   44.5597  133.4407 C   0  0  0  0  0  0  0  0  0  0  0  0
  6  7  1  0  0  0
  7  8  2  0  0  0
  7  5  1  0  0  0
  5 10  1  0  0  0
 10 11  1  0  0  0
 11 12  2  0  0  0
 12 13  1  0  0  0
 13 14  2  0  0  0
 14 15  1  0  0  0
 15 16  2  0  0  0
  5  1  1  0  0  0
  1  2  1  0  0  0
  2  3  2  0  0  0
  2 17  1  0  0  0
 17 18  1  0  0  0
 18 19  1  0  0  0
 17 21  1  0  0  0
 21 22  1  0  0  0
 22 23  2  0  0  0
 23 24  1  0  0  0
 24 25  2  0  0  0
 25 26  1  0  0  0
 26 27  2  0  0  0
 16 11  1  0  0  0
 27 22  1  0  0  0
  6  9  1  0  0  0
  1  4  1  0  0  0
 19 20  1  0  0  0
M  END
> <minimizedAffinity>
-7.54886

> <CNNscore>
0.2114752531

> <CNNaffinity>
6.4732880592

> <CNN_VS>
1.3689402342

> <CNNaffinity_variance>
0.2596017718

$$$$
[H]O[C@@]([H])([C@@]1([H])N([H])C([H])([H])[C@@]([H])(c2sc([H])c(C([H])([H])[H])c2[H])OC(C([H])([H])[H])(C([H])([H])[H])c2c([H])c([H])c([H])c(c2[H])S1(=O)=O)[C@@]([H])(C([H])([H])[H])C([H])([H])S[H]


 32 34  0  0  0  0  0  0  0  0999 V2000
    8.0380   47.1948  130.8704 C   0  0  0  0  0  0  0  0  0  0  0  0
    7.9230   46.0297  131.8033 C   0  0  0  0  0  0  0  0  0  0  0  0
    9.0300   45.5380  132.4863 N   0  0  0  0  0  0  0  0  0  0  0  0
    9.5976   44.2447  132.2899 C   0  0  0  0  0  0  0  0  0  0  0  0
   11.4223   44.6243  132.1617 S   0  0  0  0  0  0  0  0  0  0  0  0
   12.0029   44.4579  133.4478 O   0  0  0  0  0  0  0  0  0  0  0  0
   11.9890   43.5875  131.2510 O   0  0  0  0  0  0  0  0  0  0  0  0
   11.4538   46.2316  131.3453 C   0  0  0  0  0  0  0  0  0  0  0  0
   11.9069   46.0845  130.0428 C   0  0  0  0  0  0  0  0  0  0  0  0
   11.6418   47.0182  129.0577 C   0  0  0  0  0  0  0  0  0  0  0  0
   10.8776   48.1043  129.4821 C   0  0  0  0  0  0  0  0  0  0  0  0
   10.4240   48.2560  130.7732 C   0  0  0  0  0  0  0  0  0  0  0  0
   10.7242   47.3118  131.7757 C   0  0  0  0  0  0  0  0  0  0  0  0
    9.2855   49.2249  130.8856 C   0  0  0  0  0  0  0  0  0  0  0  0
    8.8731   49.5932  129.4776 C   0  0  0  0  0  0  0  0  0  0  0  0
    9.3477   50.4392  131.6539 C   0  0  0  0  0  0  0  0  0  0  0  0
    8.1195   48.4754  131.2652 O   0  0  0  0  0  0  0  0  0  0  0  0
    9.0540   45.8123  133.5164 H   0  0  0  0  0  0  0  0  0  0  0  0
    3.0565   46.1241  130.1497 C   0  0  0  0  0  0  0  0  0  0  0  0
    4.4208   46.7126  129.8256 C   0  0  0  0  0  0  0  0  0  0  0  0
    4.5740   47.4224  128.6602 C   0  0  0  0  0  0  0  0  0  0  0  0
    6.2167   47.8824  128.7057 S   0  0  0  0  0  0  0  0  0  0  0  0
    6.6537   47.1644  130.1921 C   0  0  0  0  0  0  0  0  0  0  0  0
    5.5054   46.5887  130.6058 C   0  0  0  0  0  0  0  0  0  0  0  0
    9.4500   43.4212  133.5185 C   0  0  0  0  0  0  0  0  0  0  0  0
   10.6825   43.3393  134.1839 O   0  0  0  0  0  0  0  0  0  0  0  0
   11.3836   42.9633  133.6014 H   0  0  0  0  0  0  0  0  0  0  0  0
    8.9129   42.0473  133.2064 C   0  0  0  0  0  0  0  0  0  0  0  0
    7.4150   41.9594  133.2175 C   0  0  0  0  0  0  0  0  0  0  0  0
    9.3755   41.5769  131.8297 C   0  0  0  0  0  0  0  0  0  0  0  0
    8.4021   42.4057  130.5463 S   0  0  0  0  0  0  0  0  0  0  0  0
    9.1181   42.4579  129.3339 H   0  0  0  0  0  0  0  0  0  0  0  0
 19 20  1  0  0  0
 20 21  2  0  0  0
 21 22  1  0  0  0
 22 23  1  0  0  0
 23 24  2  0  0  0
 23  1  1  0  0  0
  1  2  1  0  0  0
  2  3  1  0  0  0
  3  4  1  0  0  0
  4 25  1  0  0  0
 25 26  1  0  0  0
 25 28  1  0  0  0
 28 29  1  0  0  0
 28 30  1  0  0  0
 30 31  1  0  0  0
  4  5  1  0  0  0
  5  6  2  0  0  0
  5  7  2  0  0  0
  5  8  1  0  0  0
  8  9  2  0  0  0
  9 10  1  0  0  0
 10 11  2  0  0  0
 11 12  1  0  0  0
 12 13  2  0  0  0
 12 14  1  0  0  0
 14 15  1  0  0  0
 14 16  1  0  0  0
 14 17  1  0  0  0
 24 20  1  0  0  0
 17  1  1  0  0  0
 13  8  1  0  0  0
  3 18  1  0  0  0
 26 27  1  0  0  0
 31 32  1  0  0  0
M  END
> <minimizedAffinity>
9.27039

> <CNNscore>
0.4888298512

> <CNNaffinity>
7.4044141769

> <CNN_VS>
3.6194987297

> <CNNaffinity_variance>
1.2366729975

$$$$
[H]O[C@@]([H])([C@@]1([H])N([H])C([H])([H])[C@@]([H])(c2sc([H])c(C([H])([H])[H])c2[H])OC(C([H])([H])[H])(C([H])([H])[H])c2c([H])c([H])c([H])c(c2[H])S1(=O)=O)[C@@]([H])(C([H])([H])[H])C([H])([H])S[H]


 32 34  0  0  0  0  0  0  0  0999 V2000
   10.3921   46.2055  132.4629 C   0  0  0  0  0  0  0  0  0  0  0  0
    9.1706   46.2902  131.6016 C   0  0  0  0  0  0  0  0  0  0  0  0
    8.8582   45.2885  130.6891 N   0  0  0  0  0  0  0  0  0  0  0  0
    8.8381   45.4564  129.2732 C   0  0  0  0  0  0  0  0  0  0  0  0
    9.7847   43.9593  128.6796 S   0  0  0  0  0  0  0  0  0  0  0  0
    8.8492   42.9371  128.3653 O   0  0  0  0  0  0  0  0  0  0  0  0
   10.4625   44.3816  127.4195 O   0  0  0  0  0  0  0  0  0  0  0  0
   11.0138   43.7072  129.9744 C   0  0  0  0  0  0  0  0  0  0  0  0
   12.2687   44.0616  129.5019 C   0  0  0  0  0  0  0  0  0  0  0  0
   13.3125   44.3880  130.3483 C   0  0  0  0  0  0  0  0  0  0  0  0
   12.9928   44.3404  131.7044 C   0  0  0  0  0  0  0  0  0  0  0  0
   11.7491   43.9904  132.1801 C   0  0  0  0  0  0  0  0  0  0  0  0
   10.7006   43.6322  131.3088 C   0  0  0  0  0  0  0  0  0  0  0  0
   11.5147   44.4334  133.5930 C   0  0  0  0  0  0  0  0  0  0  0  0
   12.6856   45.3065  133.9863 C   0  0  0  0  0  0  0  0  0  0  0  0
   11.2629   43.5254  134.6796 C   0  0  0  0  0  0  0  0  0  0  0  0
   10.4913   45.4420  133.5627 O   0  0  0  0  0  0  0  0  0  0  0  0
    8.0660   44.6503  131.0085 H   0  0  0  0  0  0  0  0  0  0  0  0
    9.5972   51.2725  132.8808 C   0  0  0  0  0  0  0  0  0  0  0  0
   10.0903   49.8959  133.2984 C   0  0  0  0  0  0  0  0  0  0  0  0
   10.7400   49.7638  134.5009 C   0  0  0  0  0  0  0  0  0  0  0  0
   11.1045   48.0977  134.5577 S   0  0  0  0  0  0  0  0  0  0  0  0
   10.4254   47.6249  133.0639 C   0  0  0  0  0  0  0  0  0  0  0  0
    9.9362   48.7809  132.5682 C   0  0  0  0  0  0  0  0  0  0  0  0
    7.4574   45.2848  128.7499 C   0  0  0  0  0  0  0  0  0  0  0  0
    7.5036   44.6928  127.4788 O   0  0  0  0  0  0  0  0  0  0  0  0
    8.0443   45.2268  126.8506 H   0  0  0  0  0  0  0  0  0  0  0  0
    6.7112   46.5944  128.7085 C   0  0  0  0  0  0  0  0  0  0  0  0
    5.8278   46.8325  129.8978 C   0  0  0  0  0  0  0  0  0  0  0  0
    7.6769   47.7740  128.6288 C   0  0  0  0  0  0  0  0  0  0  0  0
    7.1490   49.0695  129.7798 S   0  0  0  0  0  0  0  0  0  0  0  0
    8.2411   49.8758  130.1572 H   0  0  0  0  0  0  0  0  0  0  0  0
 19 20  1  0  0  0
 20 21  2  0  0  0
 21 22  1  0  0  0
 22 23  1  0  0  0
 23 24  2  0  0  0
 23  1  1  0  0  0
  1  2  1  0  0  0
  2  3  1  0  0  0
  3  4  1  0  0  0
  4 25  1  0  0  0
 25 26  1  0  0  0
 25 28  1  0  0  0
 28 29  1  0  0  0
 28 30  1  0  0  0
 30 31  1  0  0  0
  4  5  1  0  0  0
  5  6  2  0  0  0
  5  7  2  0  0  0
  5  8  1  0  0  0
  8  9  2  0  0  0
  9 10  1  0  0  0
 10 11  2  0  0  0
 11 12  1  0  0  0
 12 13  2  0  0  0
 12 14  1  0  0  0
 14 15  1  0  0  0
 14 16  1  0  0  0
 14 17  1  0  0  0
 24 20  1  0  0  0
 17  1  1  0  0  0
 13  8  1  0  0  0
  3 18  1  0  0  0
 26 27  1  0  0  0
 31 32  1  0  0  0
M  END
> <minimizedAffinity>
4.91794

> <CNNscore>
0.4828472733

> <CNNaffinity>
7.6331353188

> <CNN_VS>
3.6856386662

> <CNNaffinity_variance>
1.5561413765

$$$$
[H]O[C@@]([H])([C@@]1([H])N([H])C([H])([H])[C@@]([H])(c2sc([H])c(C([H])([H])[H])c2[H])OC(C([H])([H])[H])(C([H])([H])[H])c2c([H])c([H])c([H])c(c2[H])S1(=O)=O)[C@@]([H])(C([H])([H])[H])C([H])([H])S[H]


 32 34  0  0  0  0  0  0  0  0999 V2000
    9.0047   44.3319  130.9672 C   0  0  0  0  0  0  0  0  0  0  0  0
    8.4058   45.5924  131.5090 C   0  0  0  0  0  0  0  0  0  0  0  0
    8.5964   46.8149  130.8740 N   0  0  0  0  0  0  0  0  0  0  0  0
    9.3135   47.9155  131.4285 C   0  0  0  0  0  0  0  0  0  0  0  0
   10.4099   48.4347  130.0078 S   0  0  0  0  0  0  0  0  0  0  0  0
    9.7576   49.4810  129.3016 O   0  0  0  0  0  0  0  0  0  0  0  0
   11.6473   48.9872  130.6315 O   0  0  0  0  0  0  0  0  0  0  0  0
   10.7888   46.8750  129.1866 C   0  0  0  0  0  0  0  0  0  0  0  0
   12.1120   46.5330  129.4225 C   0  0  0  0  0  0  0  0  0  0  0  0
   12.5723   45.2342  129.3051 C   0  0  0  0  0  0  0  0  0  0  0  0
   11.5968   44.3063  128.9429 C   0  0  0  0  0  0  0  0  0  0  0  0
   10.2816   44.6390  128.7081 C   0  0  0  0  0  0  0  0  0  0  0  0
    9.8298   45.9707  128.8033 C   0  0  0  0  0  0  0  0  0  0  0  0
    9.3566   43.4612  128.7773 C   0  0  0  0  0  0  0  0  0  0  0  0
   10.1675   42.2865  129.2780 C   0  0  0  0  0  0  0  0  0  0  0  0
    8.5667   43.0042  127.6657 C   0  0  0  0  0  0  0  0  0  0  0  0
    8.5104   43.6464  129.9241 O   0  0  0  0  0  0  0  0  0  0  0  0
    7.7444   47.1511  130.3283 H   0  0  0  0  0  0  0  0  0  0  0  0
    6.4445   41.1287  134.0763 C   0  0  0  0  0  0  0  0  0  0  0  0
    7.6381   41.9127  133.5533 C   0  0  0  0  0  0  0  0  0  0  0  0
    8.8415   41.7960  134.2043 C   0  0  0  0  0  0  0  0  0  0  0  0
    9.8658   42.8190  133.3008 S   0  0  0  0  0  0  0  0  0  0  0  0
    8.7421   43.3583  132.1335 C   0  0  0  0  0  0  0  0  0  0  0  0
    7.6040   42.7240  132.4852 C   0  0  0  0  0  0  0  0  0  0  0  0
    8.4001   49.0643  131.6640 C   0  0  0  0  0  0  0  0  0  0  0  0
    8.1377   49.1864  133.0368 O   0  0  0  0  0  0  0  0  0  0  0  0
    7.7494   48.3586  133.4057 H   0  0  0  0  0  0  0  0  0  0  0  0
    7.1195   48.9268  130.8799 C   0  0  0  0  0  0  0  0  0  0  0  0
    6.4350   50.2310  130.5936 C   0  0  0  0  0  0  0  0  0  0  0  0
    7.3699   48.2515  129.5339 C   0  0  0  0  0  0  0  0  0  0  0  0
    5.7940   47.7079  128.8250 S   0  0  0  0  0  0  0  0  0  0  0  0
    5.8854   47.6121  127.4222 H   0  0  0  0  0  0  0  0  0  0  0  0
 19 20  1  0  0  0
 20 21  2  0  0  0
 21 22  1  0  0  0
 22 23  1  0  0  0
 23 24  2  0  0  0
 23  1  1  0  0  0
  1  2  1  0  0  0
  2  3  1  0  0  0
  3  4  1  0  0  0
  4 25  1  0  0  0
 25 26  1  0  0  0
 25 28  1  0  0  0
 28 29  1  0  0  0
 28 30  1  0  0  0
 30 31  1  0  0  0
  4  5  1  0  0  0
  5  6  2  0  0  0
  5  7  2  0  0  0
  5  8  1  0  0  0
  8  9  2  0  0  0
  9 10  1  0  0  0
 10 11  2  0  0  0
 11 12  1  0  0  0
 12 13  2  0  0  0
 12 14  1  0  0  0
 14 15  1  0  0  0
 14 16  1  0  0  0
 14 17  1  0  0  0
 24 20  1  0  0  0
 17  1  1  0  0  0
 13  8  1  0  0  0
  3 18  1  0  0  0
 26 27  1  0  0  0
 31 32  1  0  0  0
M  END
> <minimizedAffinity>
10.38785

> <CNNscore>
0.4704343379

> <CNNaffinity>
7.4091300964

> <CNN_VS>
3.4855091572

> <CNNaffinity_variance>
1.7053304911

$$$$
[H]O[C@@]([H])([C@@]1([H])N([H])C([H])([H])[C@@]([H])(c2sc([H])c(C([H])([H])[H])c2[H])OC(C([H])([H])[H])(C([H])([H])[H])c2c([H])c([H])c([H])c(c2[H])S1(=O)=O)[C@@]([H])(C([H])([H])[H])C([H])([H])S[H]


 32 34  0  0  0  0  0  0  0  0999 V2000
   10.2858   44.9855  132.3242 C   0  0  0  0  0  0  0  0  0  0  0  0
   10.0904   46.4519  132.0948 C   0  0  0  0  0  0  0  0  0  0  0  0
    9.1957   46.9217  131.1395 N   0  0  0  0  0  0  0  0  0  0  0  0
    9.5641   47.6455  129.9675 C   0  0  0  0  0  0  0  0  0  0  0  0
    8.5791   46.7798  128.6370 S   0  0  0  0  0  0  0  0  0  0  0  0
    7.3650   47.4932  128.4467 O   0  0  0  0  0  0  0  0  0  0  0  0
    9.3925   46.8933  127.3916 O   0  0  0  0  0  0  0  0  0  0  0  0
    8.5542   45.0643  129.1911 C   0  0  0  0  0  0  0  0  0  0  0  0
    9.3751   44.2989  128.3764 C   0  0  0  0  0  0  0  0  0  0  0  0
    9.8958   43.0841  128.7835 C   0  0  0  0  0  0  0  0  0  0  0  0
    9.5354   42.7053  130.0758 C   0  0  0  0  0  0  0  0  0  0  0  0
    8.7217   43.4607  130.8900 C   0  0  0  0  0  0  0  0  0  0  0  0
    8.1738   44.6840  130.4541 C   0  0  0  0  0  0  0  0  0  0  0  0
    8.8372   43.0937  132.3390 C   0  0  0  0  0  0  0  0  0  0  0  0
    9.9788   42.1086  132.4596 C   0  0  0  0  0  0  0  0  0  0  0  0
    7.7409   42.5891  133.1213 C   0  0  0  0  0  0  0  0  0  0  0  0
    9.4388   44.2085  133.0178 O   0  0  0  0  0  0  0  0  0  0  0  0
    8.2887   47.3009  131.5524 H   0  0  0  0  0  0  0  0  0  0  0  0
   14.1653   46.8431  135.1490 C   0  0  0  0  0  0  0  0  0  0  0  0
   13.2756   45.7800  134.5237 C   0  0  0  0  0  0  0  0  0  0  0  0
   13.5476   44.4583  134.7774 C   0  0  0  0  0  0  0  0  0  0  0  0
   12.3330   43.6424  133.8992 S   0  0  0  0  0  0  0  0  0  0  0  0
   11.5241   44.9954  133.2427 C   0  0  0  0  0  0  0  0  0  0  0  0
   12.2266   46.0402  133.7286 C   0  0  0  0  0  0  0  0  0  0  0  0
    9.0251   49.0297  130.0216 C   0  0  0  0  0  0  0  0  0  0  0  0
   10.0837   49.9466  130.1062 O   0  0  0  0  0  0  0  0  0  0  0  0
   10.6534   49.7696  130.8913 H   0  0  0  0  0  0  0  0  0  0  0  0
    8.0637   49.2081  131.1694 C   0  0  0  0  0  0  0  0  0  0  0  0
    8.6944   49.7568  132.4155 C   0  0  0  0  0  0  0  0  0  0  0  0
    6.9279   50.1556  130.7918 C   0  0  0  0  0  0  0  0  0  0  0  0
    7.1042   50.6545  129.0593 S   0  0  0  0  0  0  0  0  0  0  0  0
    5.8581   51.0310  128.5201 H   0  0  0  0  0  0  0  0  0  0  0  0
 19 20  1  0  0  0
 20 21  2  0  0  0
 21 22  1  0  0  0
 22 23  1  0  0  0
 23 24  2  0  0  0
 23  1  1  0  0  0
  1  2  1  0  0  0
  2  3  1  0  0  0
  3  4  1  0  0  0
  4 25  1  0  0  0
 25 26  1  0  0  0
 25 28  1  0  0  0
 28 29  1  0  0  0
 28 30  1  0  0  0
 30 31  1  0  0  0
  4  5  1  0  0  0
  5  6  2  0  0  0
  5  7  2  0  0  0
  5  8  1  0  0  0
  8  9  2  0  0  0
  9 10  1  0  0  0
 10 11  2  0  0  0
 11 12  1  0  0  0
 12 13  2  0  0  0
 12 14  1  0  0  0
 14 15  1  0  0  0
 14 16  1  0  0  0
 14 17  1  0  0  0
 24 20  1  0  0  0
 17  1  1  0  0  0
 13  8  1  0  0  0
  3 18  1  0  0  0
 26 27  1  0  0  0
 31 32  1  0  0  0
M  END
> <minimizedAffinity>
3.36351

> <CNNscore>
0.4480170310

> <CNNaffinity>
7.6924629211

> <CNN_VS>
3.4463543892

> <CNNaffinity_variance>
1.2909396887

$$$$
[H]O[C@@]([H])([C@@]1([H])N([H])C([H])([H])[C@@]([H])(c2sc([H])c(C([H])([H])[H])c2[H])OC(C([H])([H])[H])(C([H])([H])[H])c2c([H])c([H])c([H])c(c2[H])S1(=O)=O)[C@@]([H])(C([H])([H])[H])C([H])([H])S[H]


 32 34  0  0  0  0  0  0  0  0999 V2000
    9.5391   44.6861  130.8955 C   0  0  0  0  0  0  0  0  0  0  0  0
    9.1690   45.6753  131.9565 C   0  0  0  0  0  0  0  0  0  0  0  0
    8.8877   47.0006  131.6433 N   0  0  0  0  0  0  0  0  0  0  0  0
    9.6694   48.1178  132.0605 C   0  0  0  0  0  0  0  0  0  0  0  0
    9.8416   49.0979  130.4794 S   0  0  0  0  0  0  0  0  0  0  0  0
    8.8193   50.0843  130.4538 O   0  0  0  0  0  0  0  0  0  0  0  0
   11.1607   49.7885  130.5721 O   0  0  0  0  0  0  0  0  0  0  0  0
    9.9129   47.8218  129.2077 C   0  0  0  0  0  0  0  0  0  0  0  0
   11.2019   47.7379  128.7028 C   0  0  0  0  0  0  0  0  0  0  0  0
   11.6707   46.6090  128.0559 C   0  0  0  0  0  0  0  0  0  0  0  0
   10.7464   45.5691  127.9662 C   0  0  0  0  0  0  0  0  0  0  0  0
    9.4657   45.6456  128.4660 C   0  0  0  0  0  0  0  0  0  0  0  0
    8.9897   46.8117  129.0986 C   0  0  0  0  0  0  0  0  0  0  0  0
    8.8276   44.3021  128.6541 C   0  0  0  0  0  0  0  0  0  0  0  0
    9.8956   43.2618  128.3988 C   0  0  0  0  0  0  0  0  0  0  0  0
    7.6370   43.8838  127.9641 C   0  0  0  0  0  0  0  0  0  0  0  0
    8.6600   44.1002  130.0671 O   0  0  0  0  0  0  0  0  0  0  0  0
    7.8475   47.2340  131.6647 H   0  0  0  0  0  0  0  0  0  0  0  0
    9.4137   41.0351  134.5197 C   0  0  0  0  0  0  0  0  0  0  0  0
    9.9900   41.8381  133.3640 C   0  0  0  0  0  0  0  0  0  0  0  0
   11.2285   41.4995  132.8772 C   0  0  0  0  0  0  0  0  0  0  0  0
   11.4694   42.6319  131.6235 S   0  0  0  0  0  0  0  0  0  0  0  0
   10.0007   43.4930  131.7559 C   0  0  0  0  0  0  0  0  0  0  0  0
    9.3692   42.8706  132.7733 C   0  0  0  0  0  0  0  0  0  0  0  0
    8.8867   48.9844  132.9801 C   0  0  0  0  0  0  0  0  0  0  0  0
    9.3458   50.3070  132.8889 O   0  0  0  0  0  0  0  0  0  0  0  0
   10.3081   50.3708  133.0940 H   0  0  0  0  0  0  0  0  0  0  0  0
    8.9510   48.4877  134.4023 C   0  0  0  0  0  0  0  0  0  0  0  0
    7.8423   47.5466  134.7719 C   0  0  0  0  0  0  0  0  0  0  0  0
   10.2634   47.7549  134.6690 C   0  0  0  0  0  0  0  0  0  0  0  0
    9.9137   46.0691  135.2322 S   0  0  0  0  0  0  0  0  0  0  0  0
   10.9992   45.2153  134.9529 H   0  0  0  0  0  0  0  0  0  0  0  0
 19 20  1  0  0  0
 20 21  2  0  0  0
 21 22  1  0  0  0
 22 23  1  0  0  0
 23 24  2  0  0  0
 23  1  1  0  0  0
  1  2  1  0  0  0
  2  3  1  0  0  0
  3  4  1  0  0  0
  4 25  1  0  0  0
 25 26  1  0  0  0
 25 28  1  0  0  0
 28 29  1  0  0  0
 28 30  1  0  0  0
 30 31  1  0  0  0
  4  5  1  0  0  0
  5  6  2  0  0  0
  5  7  2  0  0  0
  5  8  1  0  0  0
  8  9  2  0  0  0
  9 10  1  0  0  0
 10 11  2  0  0  0
 11 12  1  0  0  0
 12 13  2  0  0  0
 12 14  1  0  0  0
 14 15  1  0  0  0
 14 16  1  0  0  0
 14 17  1  0  0  0
 24 20  1  0  0  0
 17  1  1  0  0  0
 13  8  1  0  0  0
  3 18  1  0  0  0
 26 27  1  0  0  0
 31 32  1  0  0  0
M  END
> <minimizedAffinity>
12.97353

> <CNNscore>
0.4419895411

> <CNNaffinity>
7.2758812904

> <CNN_VS>
3.2158634663

> <CNNaffinity_variance>
1.8117086887

$$$$
[H]O[C@@]([H])([C@@]1([H])N([H])C([H])([H])[C@@]([H])(c2sc([H])c(C([H])([H])[H])c2[H])OC(C([H])([H])[H])(C([H])([H])[H])c2c([H])c([H])c([H])c(c2[H])S1(=O)=O)[C@@]([H])(C([H])([H])[H])C([H])([H])S[H]


 32 34  0  0  0  0  0  0  0  0999 V2000
    9.3607   46.6438  132.5049 C   0  0  0  0  0  0  0  0  0  0  0  0
    9.7634   46.1422  131.1531 C   0  0  0  0  0  0  0  0  0  0  0  0
   10.0982   44.8084  130.9468 N   0  0  0  0  0  0  0  0  0  0  0  0
   11.3939   44.3440  130.5742 C   0  0  0  0  0  0  0  0  0  0  0  0
   11.6627   42.9203  131.7535 S   0  0  0  0  0  0  0  0  0  0  0  0
   11.2705   41.7211  131.1000 O   0  0  0  0  0  0  0  0  0  0  0  0
   13.1338   42.8660  131.9950 O   0  0  0  0  0  0  0  0  0  0  0  0
   10.8212   43.4614  133.2534 C   0  0  0  0  0  0  0  0  0  0  0  0
   11.7583   43.7832  134.2238 C   0  0  0  0  0  0  0  0  0  0  0  0
   11.4634   44.6129  135.2903 C   0  0  0  0  0  0  0  0  0  0  0  0
   10.1576   45.1011  135.2982 C   0  0  0  0  0  0  0  0  0  0  0  0
    9.2228   44.7863  134.3377 C   0  0  0  0  0  0  0  0  0  0  0  0
    9.5263   43.9170  133.2706 C   0  0  0  0  0  0  0  0  0  0  0  0
    8.0736   45.7483  134.2991 C   0  0  0  0  0  0  0  0  0  0  0  0
    8.4157   46.8890  135.2318 C   0  0  0  0  0  0  0  0  0  0  0  0
    6.7101   45.3690  134.5554 C   0  0  0  0  0  0  0  0  0  0  0  0
    8.1486   46.4573  133.0512 O   0  0  0  0  0  0  0  0  0  0  0  0
    9.3364   44.2468  130.4558 H   0  0  0  0  0  0  0  0  0  0  0  0
    9.9189   51.6658  133.4787 C   0  0  0  0  0  0  0  0  0  0  0  0
    9.6032   50.4290  132.6521 C   0  0  0  0  0  0  0  0  0  0  0  0
    9.2179   50.5894  131.3440 C   0  0  0  0  0  0  0  0  0  0  0  0
    8.9726   48.9846  130.8180 S   0  0  0  0  0  0  0  0  0  0  0  0
    9.3642   48.1668  132.2650 C   0  0  0  0  0  0  0  0  0  0  0  0
    9.6736   49.1706  133.1123 C   0  0  0  0  0  0  0  0  0  0  0  0
   11.3568   43.7341  129.2193 C   0  0  0  0  0  0  0  0  0  0  0  0
   12.4705   44.1582  128.4789 O   0  0  0  0  0  0  0  0  0  0  0  0
   12.5067   45.1413  128.4113 H   0  0  0  0  0  0  0  0  0  0  0  0
   10.0734   44.0591  128.4976 C   0  0  0  0  0  0  0  0  0  0  0  0
    8.8362   43.6099  129.2180 C   0  0  0  0  0  0  0  0  0  0  0  0
    9.9357   45.5628  128.2731 C   0  0  0  0  0  0  0  0  0  0  0  0
    8.2347   46.0761  128.6263 S   0  0  0  0  0  0  0  0  0  0  0  0
    8.1890   47.4388  128.9814 H   0  0  0  0  0  0  0  0  0  0  0  0
 19 20  1  0  0  0
 20 21  2  0  0  0
 21 22  1  0  0  0
 22 23  1  0  0  0
 23 24  2  0  0  0
 23  1  1  0  0  0
  1  2  1  0  0  0
  2  3  1  0  0  0
  3  4  1  0  0  0
  4 25  1  0  0  0
 25 26  1  0  0  0
 25 28  1  0  0  0
 28 29  1  0  0  0
 28 30  1  0  0  0
 30 31  1  0  0  0
  4  5  1  0  0  0
  5  6  2  0  0  0
  5  7  2  0  0  0
  5  8  1  0  0  0
  8  9  2  0  0  0
  9 10  1  0  0  0
 10 11  2  0  0  0
 11 12  1  0  0  0
 12 13  2  0  0  0
 12 14  1  0  0  0
 14 15  1  0  0  0
 14 16  1  0  0  0
 14 17  1  0  0  0
 24 20  1  0  0  0
 17  1  1  0  0  0
 13  8  1  0  0  0
  3 18  1  0  0  0
 26 27  1  0  0  0
 31 32  1  0  0  0
M  END
> <minimizedAffinity>
2.25014

> <CNNscore>
0.4233377576

> <CNNaffinity>
7.5600485802

> <CNN_VS>
3.2004539967

> <CNNaffinity_variance>
0.6274536252

$$$$
[H]O[C@@]([H])([C@@]1([H])N([H])C([H])([H])[C@@]([H])(c2sc([H])c(C([H])([H])[H])c2[H])OC(C([H])([H])[H])(C([H])([H])[H])c2c([H])c([H])c([H])c(c2[H])S1(=O)=O)[C@@]([H])(C([H])([H])[H])C([H])([H])S[H]


 32 34  0  0  0  0  0  0  0  0999 V2000
    9.4895   45.2464  132.8975 C   0  0  0  0  0  0  0  0  0  0  0  0
    8.6203   45.9532  131.9045 C   0  0  0  0  0  0  0  0  0  0  0  0
    8.6384   45.6133  130.5562 N   0  0  0  0  0  0  0  0  0  0  0  0
    9.0854   46.4703  129.5079 C   0  0  0  0  0  0  0  0  0  0  0  0
   10.1920   45.3411  128.5128 S   0  0  0  0  0  0  0  0  0  0  0  0
    9.4245   44.7865  127.4534 O   0  0  0  0  0  0  0  0  0  0  0  0
   11.2432   46.2202  127.9231 O   0  0  0  0  0  0  0  0  0  0  0  0
   10.9269   44.2732  129.7657 C   0  0  0  0  0  0  0  0  0  0  0  0
   12.2633   44.6033  129.9346 C   0  0  0  0  0  0  0  0  0  0  0  0
   12.9650   44.2822  131.0823 C   0  0  0  0  0  0  0  0  0  0  0  0
   12.2157   43.6136  132.0493 C   0  0  0  0  0  0  0  0  0  0  0  0
   10.8887   43.2837  131.8884 C   0  0  0  0  0  0  0  0  0  0  0  0
   10.1912   43.5911  130.7028 C   0  0  0  0  0  0  0  0  0  0  0  0
   10.1956   42.9888  133.1846 C   0  0  0  0  0  0  0  0  0  0  0  0
   11.1608   43.3382  134.2956 C   0  0  0  0  0  0  0  0  0  0  0  0
    9.6092   41.7141  133.5007 C   0  0  0  0  0  0  0  0  0  0  0  0
    9.2283   44.0295  133.4009 O   0  0  0  0  0  0  0  0  0  0  0  0
    7.7925   45.0424  130.2473 H   0  0  0  0  0  0  0  0  0  0  0  0
    7.5362   48.9089  135.9391 C   0  0  0  0  0  0  0  0  0  0  0  0
    8.4628   47.7712  135.5393 C   0  0  0  0  0  0  0  0  0  0  0  0
    9.4140   47.3483  136.4347 C   0  0  0  0  0  0  0  0  0  0  0  0
   10.2027   46.0925  135.5902 S   0  0  0  0  0  0  0  0  0  0  0  0
    9.3061   46.1436  134.1378 C   0  0  0  0  0  0  0  0  0  0  0  0
    8.4206   47.1381  134.3570 C   0  0  0  0  0  0  0  0  0  0  0  0
    7.9573   46.8163  128.6039 C   0  0  0  0  0  0  0  0  0  0  0  0
    8.4516   47.4364  127.4466 O   0  0  0  0  0  0  0  0  0  0  0  0
    8.9761   48.2425  127.6641 H   0  0  0  0  0  0  0  0  0  0  0  0
    6.9405   47.6913  129.2926 C   0  0  0  0  0  0  0  0  0  0  0  0
    5.8757   46.9300  130.0261 C   0  0  0  0  0  0  0  0  0  0  0  0
    7.6087   48.6129  130.3097 C   0  0  0  0  0  0  0  0  0  0  0  0
    6.9637   50.2951  130.1203 S   0  0  0  0  0  0  0  0  0  0  0  0
    7.0935   51.0168  131.3233 H   0  0  0  0  0  0  0  0  0  0  0  0
 19 20  1  0  0  0
 20 21  2  0  0  0
 21 22  1  0  0  0
 22 23  1  0  0  0
 23 24  2  0  0  0
 23  1  1  0  0  0
  1  2  1  0  0  0
  2  3  1  0  0  0
  3  4  1  0  0  0
  4 25  1  0  0  0
 25 26  1  0  0  0
 25 28  1  0  0  0
 28 29  1  0  0  0
 28 30  1  0  0  0
 30 31  1  0  0  0
  4  5  1  0  0  0
  5  6  2  0  0  0
  5  7  2  0  0  0
  5  8  1  0  0  0
  8  9  2  0  0  0
  9 10  1  0  0  0
 10 11  2  0  0  0
 11 12  1  0  0  0
 12 13  2  0  0  0
 12 14  1  0  0  0
 14 15  1  0  0  0
 14 16  1  0  0  0
 14 17  1  0  0  0
 24 20  1  0  0  0
 17  1  1  0  0  0
 13  8  1  0  0  0
  3 18  1  0  0  0
 26 27  1  0  0  0
 31 32  1  0  0  0
M  END
> <minimizedAffinity>
3.11426

> <CNNscore>
0.4188274741

> <CNNaffinity>
7.5460066795

> <CNN_VS>
3.1604750156

> <CNNaffinity_variance>
0.6266846061

$$$$
[H]O[C@@]([H])([C@@]1([H])N([H])C([H])([H])[C@@]([H])(c2sc([H])c(C([H])([H])[H])c2[H])OC(C([H])([H])[H])(C([H])([H])[H])c2c([H])c([H])c([H])c(c2[H])S1(=O)=O)[C@@]([H])(C([H])([H])[H])C([H])([H])S[H]


 32 34  0  0  0  0  0  0  0  0999 V2000
    9.1307   44.7643  132.0643 C   0  0  0  0  0  0  0  0  0  0  0  0
    8.1854   45.9241  132.1148 C   0  0  0  0  0  0  0  0  0  0  0  0
    7.5950   46.4267  130.9604 N   0  0  0  0  0  0  0  0  0  0  0  0
    7.8315   47.7277  130.4269 C   0  0  0  0  0  0  0  0  0  0  0  0
    8.1141   47.3714  128.6150 S   0  0  0  0  0  0  0  0  0  0  0  0
    6.8803   47.5396  127.9306 O   0  0  0  0  0  0  0  0  0  0  0  0
    9.0637   48.4189  128.1390 O   0  0  0  0  0  0  0  0  0  0  0  0
    8.9386   45.7680  128.6326 C   0  0  0  0  0  0  0  0  0  0  0  0
   10.2737   45.9262  128.2921 C   0  0  0  0  0  0  0  0  0  0  0  0
   11.2379   44.9933  128.6276 C   0  0  0  0  0  0  0  0  0  0  0  0
   10.7566   43.8960  129.3404 C   0  0  0  0  0  0  0  0  0  0  0  0
    9.4329   43.7334  129.6823 C   0  0  0  0  0  0  0  0  0  0  0  0
    8.4542   44.6770  129.3105 C   0  0  0  0  0  0  0  0  0  0  0  0
    9.2305   42.7499  130.7957 C   0  0  0  0  0  0  0  0  0  0  0  0
   10.6009   42.3824  131.3202 C   0  0  0  0  0  0  0  0  0  0  0  0
    8.4765   41.5333  130.6546 C   0  0  0  0  0  0  0  0  0  0  0  0
    8.7507   43.4833  131.9347 O   0  0  0  0  0  0  0  0  0  0  0  0
    6.5720   46.1484  130.8468 H   0  0  0  0  0  0  0  0  0  0  0  0
   11.7869   43.2659  136.2093 C   0  0  0  0  0  0  0  0  0  0  0  0
   10.8663   44.1514  135.3840 C   0  0  0  0  0  0  0  0  0  0  0  0
   10.3466   45.2836  135.9615 C   0  0  0  0  0  0  0  0  0  0  0  0
    9.3988   45.9511  134.7092 S   0  0  0  0  0  0  0  0  0  0  0  0
    9.6904   44.7803  133.5009 C   0  0  0  0  0  0  0  0  0  0  0  0
   10.5172   43.9061  134.1119 C   0  0  0  0  0  0  0  0  0  0  0  0
    6.5906   48.5442  130.4809 C   0  0  0  0  0  0  0  0  0  0  0  0
    5.9264   48.4774  129.2468 O   0  0  0  0  0  0  0  0  0  0  0  0
    6.5046   48.7810  128.5081 H   0  0  0  0  0  0  0  0  0  0  0  0
    6.8814   49.9742  130.8605 C   0  0  0  0  0  0  0  0  0  0  0  0
    8.3195   50.3698  130.6968 C   0  0  0  0  0  0  0  0  0  0  0  0
    6.0552   50.9441  130.0197 C   0  0  0  0  0  0  0  0  0  0  0  0
    7.0860   51.6325  128.6987 S   0  0  0  0  0  0  0  0  0  0  0  0
    6.2910   52.0515  127.6135 H   0  0  0  0  0  0  0  0  0  0  0  0
 19 20  1  0  0  0
 20 21  2  0  0  0
 21 22  1  0  0  0
 22 23  1  0  0  0
 23 24  2  0  0  0
 23  1  1  0  0  0
  1  2  1  0  0  0
  2  3  1  0  0  0
  3  4  1  0  0  0
  4 25  1  0  0  0
 25 26  1  0  0  0
 25 28  1  0  0  0
 28 29  1  0  0  0
 28 30  1  0  0  0
 30 31  1  0  0  0
  4  5  1  0  0  0
  5  6  2  0  0  0
  5  7  2  0  0  0
  5  8  1  0  0  0
  8  9  2  0  0  0
  9 10  1  0  0  0
 10 11  2  0  0  0
 11 12  1  0  0  0
 12 13  2  0  0  0
 12 14  1  0  0  0
 14 15  1  0  0  0
 14 16  1  0  0  0
 14 17  1  0  0  0
 24 20  1  0  0  0
 17  1  1  0  0  0
 13  8  1  0  0  0
  3 18  1  0  0  0
 26 27  1  0  0  0
 31 32  1  0  0  0
M  END
> <minimizedAffinity>
1.81701

> <CNNscore>
0.4129561186

> <CNNaffinity>
7.2880477905

> <CNN_VS>
3.0096440315

> <CNNaffinity_variance>
0.4797948897

$$$$
[H]O[C@@]([H])([C@@]1([H])N([H])C([H])([H])[C@@]([H])(c2sc([H])c(C([H])([H])[H])c2[H])OC(C([H])([H])[H])(C([H])([H])[H])c2c([H])c([H])c([H])c(c2[H])S1(=O)=O)[C@@]([H])(C([H])([H])[H])C([H])([H])S[H]


 32 34  0  0  0  0  0  0  0  0999 V2000
    9.4889   44.5004  132.0821 C   0  0  0  0  0  0  0  0  0  0  0  0
    8.8268   45.8312  132.2608 C   0  0  0  0  0  0  0  0  0  0  0  0
    8.2358   46.4944  131.1909 N   0  0  0  0  0  0  0  0  0  0  0  0
    8.6871   47.7365  130.6554 C   0  0  0  0  0  0  0  0  0  0  0  0
    8.6866   47.4031  128.8173 S   0  0  0  0  0  0  0  0  0  0  0  0
    7.4507   47.8570  128.2830 O   0  0  0  0  0  0  0  0  0  0  0  0
    9.7816   48.2441  128.2523 O   0  0  0  0  0  0  0  0  0  0  0  0
    9.1434   45.6621  128.7128 C   0  0  0  0  0  0  0  0  0  0  0  0
   10.4358   45.5474  128.2230 C   0  0  0  0  0  0  0  0  0  0  0  0
   11.2074   44.4183  128.4292 C   0  0  0  0  0  0  0  0  0  0  0  0
   10.5820   43.4198  129.1744 C   0  0  0  0  0  0  0  0  0  0  0  0
    9.2998   43.5275  129.6643 C   0  0  0  0  0  0  0  0  0  0  0  0
    8.5125   44.6717  129.4239 C   0  0  0  0  0  0  0  0  0  0  0  0
    9.0134   42.5644  130.7770 C   0  0  0  0  0  0  0  0  0  0  0  0
   10.3215   41.8936  131.1334 C   0  0  0  0  0  0  0  0  0  0  0  0
    8.0043   41.5422  130.7038 C   0  0  0  0  0  0  0  0  0  0  0  0
    8.8302   43.3355  131.9759 O   0  0  0  0  0  0  0  0  0  0  0  0
    7.1707   46.4442  131.1917 H   0  0  0  0  0  0  0  0  0  0  0  0
   10.3257   44.9092  137.1431 C   0  0  0  0  0  0  0  0  0  0  0  0
   10.6104   44.4928  135.7085 C   0  0  0  0  0  0  0  0  0  0  0  0
   11.7548   43.7825  135.4416 C   0  0  0  0  0  0  0  0  0  0  0  0
   11.6682   43.5374  133.7550 S   0  0  0  0  0  0  0  0  0  0  0  0
   10.1925   44.3384  133.4444 C   0  0  0  0  0  0  0  0  0  0  0  0
    9.8141   44.7718  134.6652 C   0  0  0  0  0  0  0  0  0  0  0  0
    7.6646   48.7946  130.8660 C   0  0  0  0  0  0  0  0  0  0  0  0
    6.5044   48.4821  130.1416 O   0  0  0  0  0  0  0  0  0  0  0  0
    6.6958   48.3770  129.1801 H   0  0  0  0  0  0  0  0  0  0  0  0
    8.1873   50.1571  130.4864 C   0  0  0  0  0  0  0  0  0  0  0  0
    7.1229   51.1203  130.0496 C   0  0  0  0  0  0  0  0  0  0  0  0
    8.9231   50.8078  131.6550 C   0  0  0  0  0  0  0  0  0  0  0  0
    9.8679   49.5501  132.5535 S   0  0  0  0  0  0  0  0  0  0  0  0
   10.9537   50.1349  133.2348 H   0  0  0  0  0  0  0  0  0  0  0  0
 19 20  1  0  0  0
 20 21  2  0  0  0
 21 22  1  0  0  0
 22 23  1  0  0  0
 23 24  2  0  0  0
 23  1  1  0  0  0
  1  2  1  0  0  0
  2  3  1  0  0  0
  3  4  1  0  0  0
  4 25  1  0  0  0
 25 26  1  0  0  0
 25 28  1  0  0  0
 28 29  1  0  0  0
 28 30  1  0  0  0
 30 31  1  0  0  0
  4  5  1  0  0  0
  5  6  2  0  0  0
  5  7  2  0  0  0
  5  8  1  0  0  0
  8  9  2  0  0  0
  9 10  1  0  0  0
 10 11  2  0  0  0
 11 12  1  0  0  0
 12 13  2  0  0  0
 12 14  1  0  0  0
 14 15  1  0  0  0
 14 16  1  0  0  0
 14 17  1  0  0  0
 24 20  1  0  0  0
 17  1  1  0  0  0
 13  8  1  0  0  0
  3 18  1  0  0  0
 26 27  1  0  0  0
 31 32  1  0  0  0
M  END
> <minimizedAffinity>
1.65238

> <CNNscore>
0.4115327299

> <CNNaffinity>
7.3367652893

> <CNN_VS>
3.0193190575

> <CNNaffinity_variance>
0.5930286050

$$$$
[H]OC(=O)c1c([H])c([H])c(-n2c(=O)c(C([H])=C([H])[C@]([H])(c3c([H])nc(O[H])c([H])c3C([H])([H])[H])C([H])([H])[H])c([H])n2[H])c([H])c1[H]


 30 32  0  0  0  0  0  0  0  0999 V2000
    8.1061   47.3746  131.2751 C   0  0  0  0  0  0  0  0  0  0  0  0
    7.0576   46.9034  130.4885 C   0  0  0  0  0  0  0  0  0  0  0  0
    6.6936   47.9052  129.6731 N   0  0  0  0  0  0  0  0  0  0  0  0
    7.4465   48.9677  129.9010 N   0  0  0  0  0  0  0  0  0  0  0  0
    8.3377   48.6669  130.8960 C   0  0  0  0  0  0  0  0  0  0  0  0
    9.1948   49.4835  131.3383 O   0  0  0  0  0  0  0  0  0  0  0  0
    5.9314   47.8604  128.9622 H   0  0  0  0  0  0  0  0  0  0  0  0
    7.3236   50.2114  129.2031 C   0  0  0  0  0  0  0  0  0  0  0  0
    6.9842   51.3798  129.8823 C   0  0  0  0  0  0  0  0  0  0  0  0
    6.8634   52.5914  129.2354 C   0  0  0  0  0  0  0  0  0  0  0  0
    7.0774   52.6881  127.8764 C   0  0  0  0  0  0  0  0  0  0  0  0
    7.4121   51.5244  127.2171 C   0  0  0  0  0  0  0  0  0  0  0  0
    7.5352   50.3149  127.8480 C   0  0  0  0  0  0  0  0  0  0  0  0
    6.9568   53.9584  127.1743 C   0  0  0  0  0  0  0  0  0  0  0  0
    5.7188   54.3838  126.7765 O   0  0  0  0  0  0  0  0  0  0  0  0
    7.9704   54.6402  126.9436 O   0  0  0  0  0  0  0  0  0  0  0  0
    5.3574   54.1680  125.8561 H   0  0  0  0  0  0  0  0  0  0  0  0
    9.7854   47.0119  133.0332 C   0  0  0  0  0  0  0  0  0  0  0  0
    8.7866   46.5940  132.2895 C   0  0  0  0  0  0  0  0  0  0  0  0
   10.3968   46.1041  134.0430 C   0  0  0  0  0  0  0  0  0  0  0  0
    9.5079   46.0202  135.2652 C   0  0  0  0  0  0  0  0  0  0  0  0
   12.6786   45.5558  132.3961 C   0  0  0  0  0  0  0  0  0  0  0  0
   11.7001   44.4708  132.6686 C   0  0  0  0  0  0  0  0  0  0  0  0
   11.8905   43.2024  132.1266 C   0  0  0  0  0  0  0  0  0  0  0  0
   10.9822   42.2013  132.3857 C   0  0  0  0  0  0  0  0  0  0  0  0
   11.1683   40.9268  131.8443 O   0  0  0  0  0  0  0  0  0  0  0  0
    9.9370   42.5045  133.1639 N   0  0  0  0  0  0  0  0  0  0  0  0
    9.7092   43.7071  133.7084 C   0  0  0  0  0  0  0  0  0  0  0  0
   10.6105   44.7458  133.4665 C   0  0  0  0  0  0  0  0  0  0  0  0
   11.3546   40.1510  132.4871 H   0  0  0  0  0  0  0  0  0  0  0  0
 22 23  1  0  0  0
 23 24  2  0  0  0
 24 25  1  0  0  0
 25 26  1  0  0  0
 25 27  2  0  0  0
 27 28  1  0  0  0
 28 29  2  0  0  0
 29 20  1  0  0  0
 20 21  1  0  0  0
 20 18  1  0  0  0
 18 19  2  0  0  0
 19  1  1  0  0  0
  1  2  2  0  0  0
  2  3  1  0  0  0
  3  4  1  0  0  0
  4  8  1  0  0  0
  8  9  2  0  0  0
  9 10  1  0  0  0
 10 11  2  0  0  0
 11 12  1  0  0  0
 12 13  2  0  0  0
 11 14  1  0  0  0
 14 15  1  0  0  0
 14 16  2  0  0  0
  4  5  1  0  0  0
  5  6  2  0  0  0
 29 23  1  0  0  0
  5  1  1  0  0  0
 13  8  1  0  0  0
 26 30  1  0  0  0
  3  7  1  0  0  0
 15 17  1  0  0  0
M  END
> <minimizedAffinity>
2.84851

> <CNNscore>
0.2062855065

> <CNNaffinity>
6.7216224670

> <CNN_VS>
1.3865733147

> <CNNaffinity_variance>
0.3269048333

$$$$
[H]OC(=O)c1c([H])c([H])c(-n2c(=O)c(C([H])=C([H])[C@]([H])(c3c([H])nc(O[H])c([H])c3C([H])([H])[H])C([H])([H])[H])c([H])n2[H])c([H])c1[H]


 30 32  0  0  0  0  0  0  0  0999 V2000
    7.7616   45.9796  130.4883 C   0  0  0  0  0  0  0  0  0  0  0  0
    6.3733   46.0681  130.5574 C   0  0  0  0  0  0  0  0  0  0  0  0
    6.0322   47.2885  130.1154 N   0  0  0  0  0  0  0  0  0  0  0  0
    7.1167   47.9641  129.7762 N   0  0  0  0  0  0  0  0  0  0  0  0
    8.2120   47.1729  129.9979 C   0  0  0  0  0  0  0  0  0  0  0  0
    9.3992   47.5409  129.7690 O   0  0  0  0  0  0  0  0  0  0  0  0
    5.0587   47.6569  130.0462 H   0  0  0  0  0  0  0  0  0  0  0  0
    7.1104   49.3008  129.2640 C   0  0  0  0  0  0  0  0  0  0  0  0
    6.9724   50.3918  130.1197 C   0  0  0  0  0  0  0  0  0  0  0  0
    6.9674   51.6893  129.6534 C   0  0  0  0  0  0  0  0  0  0  0  0
    7.1005   51.9535  128.3064 C   0  0  0  0  0  0  0  0  0  0  0  0
    7.2358   50.8648  127.4713 C   0  0  0  0  0  0  0  0  0  0  0  0
    7.2423   49.5714  127.9220 C   0  0  0  0  0  0  0  0  0  0  0  0
    7.0997   53.3166  127.7934 C   0  0  0  0  0  0  0  0  0  0  0  0
    7.5702   53.5525  126.5305 O   0  0  0  0  0  0  0  0  0  0  0  0
    6.6756   54.2470  128.5004 O   0  0  0  0  0  0  0  0  0  0  0  0
    8.5386   53.7958  126.3652 H   0  0  0  0  0  0  0  0  0  0  0  0
    8.4946   43.6423  130.2828 C   0  0  0  0  0  0  0  0  0  0  0  0
    8.5303   44.8134  130.8765 C   0  0  0  0  0  0  0  0  0  0  0  0
    9.3388   42.5231  130.7852 C   0  0  0  0  0  0  0  0  0  0  0  0
    9.9949   41.8108  129.6219 C   0  0  0  0  0  0  0  0  0  0  0  0
    8.8484   42.5657  133.6095 C   0  0  0  0  0  0  0  0  0  0  0  0
   10.1494   43.0614  133.0892 C   0  0  0  0  0  0  0  0  0  0  0  0
   11.1177   43.5433  133.9662 C   0  0  0  0  0  0  0  0  0  0  0  0
   12.3215   43.9979  133.4778 C   0  0  0  0  0  0  0  0  0  0  0  0
   13.2964   44.4827  134.3533 O   0  0  0  0  0  0  0  0  0  0  0  0
   12.5051   43.9529  132.1533 N   0  0  0  0  0  0  0  0  0  0  0  0
   11.6068   43.4992  131.2691 C   0  0  0  0  0  0  0  0  0  0  0  0
   10.3749   43.0303  131.7299 C   0  0  0  0  0  0  0  0  0  0  0  0
   14.1724   43.9582  134.4396 H   0  0  0  0  0  0  0  0  0  0  0  0
 22 23  1  0  0  0
 23 24  2  0  0  0
 24 25  1  0  0  0
 25 26  1  0  0  0
 25 27  2  0  0  0
 27 28  1  0  0  0
 28 29  2  0  0  0
 29 20  1  0  0  0
 20 21  1  0  0  0
 20 18  1  0  0  0
 18 19  2  0  0  0
 19  1  1  0  0  0
  1  2  2  0  0  0
  2  3  1  0  0  0
  3  4  1  0  0  0
  4  8  1  0  0  0
  8  9  2  0  0  0
  9 10  1  0  0  0
 10 11  2  0  0  0
 11 12  1  0  0  0
 12 13  2  0  0  0
 11 14  1  0  0  0
 14 15  1  0  0  0
 14 16  2  0  0  0
  4  5  1  0  0  0
  5  6  2  0  0  0
 29 23  1  0  0  0
  5  1  1  0  0  0
 13  8  1  0  0  0
 26 30  1  0  0  0
  3  7  1  0  0  0
 15 17  1  0  0  0
M  END
> <minimizedAffinity>
2.72671

> <CNNscore>
0.1652606875

> <CNNaffinity>
6.6505918503

> <CNN_VS>
1.0990813971

> <CNNaffinity_variance>
0.2706286013

$$$$
[H]OC(=O)c1c([H])c([H])c(-n2c(=O)c(C([H])=C([H])[C@]([H])(c3c([H])nc(O[H])c([H])c3C([H])([H])[H])C([H])([H])[H])c([H])n2[H])c([H])c1[H]


 30 32  0  0  0  0  0  0  0  0999 V2000
    7.6005   46.0342  130.6338 C   0  0  0  0  0  0  0  0  0  0  0  0
    6.2219   46.0563  130.4361 C   0  0  0  0  0  0  0  0  0  0  0  0
    5.9120   47.2659  129.9446 N   0  0  0  0  0  0  0  0  0  0  0  0
    7.0067   47.9970  129.8238 N   0  0  0  0  0  0  0  0  0  0  0  0
    8.0770   47.2549  130.2463 C   0  0  0  0  0  0  0  0  0  0  0  0
    9.2666   47.6819  130.2514 O   0  0  0  0  0  0  0  0  0  0  0  0
    4.9527   47.5892  129.6925 H   0  0  0  0  0  0  0  0  0  0  0  0
    7.0327   49.3397  129.3282 C   0  0  0  0  0  0  0  0  0  0  0  0
    7.2928   49.5989  127.9840 C   0  0  0  0  0  0  0  0  0  0  0  0
    7.3194   50.8818  127.4797 C   0  0  0  0  0  0  0  0  0  0  0  0
    7.0864   51.9655  128.3003 C   0  0  0  0  0  0  0  0  0  0  0  0
    6.8309   51.6946  129.6278 C   0  0  0  0  0  0  0  0  0  0  0  0
    6.8016   50.4249  130.1409 C   0  0  0  0  0  0  0  0  0  0  0  0
    7.1080   53.3285  127.7874 C   0  0  0  0  0  0  0  0  0  0  0  0
    7.6055   53.5599  126.5341 O   0  0  0  0  0  0  0  0  0  0  0  0
    6.6787   54.2628  128.4860 O   0  0  0  0  0  0  0  0  0  0  0  0
    8.5792   53.7944  126.3879 H   0  0  0  0  0  0  0  0  0  0  0  0
    8.6172   43.8007  130.4920 C   0  0  0  0  0  0  0  0  0  0  0  0
    8.3372   44.8996  131.1548 C   0  0  0  0  0  0  0  0  0  0  0  0
    9.3849   42.7065  131.1485 C   0  0  0  0  0  0  0  0  0  0  0  0
   10.0324   41.8299  130.0981 C   0  0  0  0  0  0  0  0  0  0  0  0
   11.6868   44.0545  130.0983 C   0  0  0  0  0  0  0  0  0  0  0  0
   11.5350   43.9126  131.5699 C   0  0  0  0  0  0  0  0  0  0  0  0
   12.5033   44.4277  132.4278 C   0  0  0  0  0  0  0  0  0  0  0  0
   12.3548   44.2955  133.7897 C   0  0  0  0  0  0  0  0  0  0  0  0
   13.3234   44.8104  134.6549 O   0  0  0  0  0  0  0  0  0  0  0  0
   11.2614   43.6635  134.2314 N   0  0  0  0  0  0  0  0  0  0  0  0
   10.3025   43.1511  133.4486 C   0  0  0  0  0  0  0  0  0  0  0  0
   10.4210   43.2674  132.0622 C   0  0  0  0  0  0  0  0  0  0  0  0
   13.0591   45.5862  135.2697 H   0  0  0  0  0  0  0  0  0  0  0  0
 22 23  1  0  0  0
 23 24  2  0  0  0
 24 25  1  0  0  0
 25 26  1  0  0  0
 25 27  2  0  0  0
 27 28  1  0  0  0
 28 29  2  0  0  0
 29 20  1  0  0  0
 20 21  1  0  0  0
 20 18  1  0  0  0
 18 19  2  0  0  0
 19  1  1  0  0  0
  1  2  2  0  0  0
  2  3  1  0  0  0
  3  4  1  0  0  0
  4  8  1  0  0  0
  8  9  2  0  0  0
  9 10  1  0  0  0
 10 11  2  0  0  0
 11 12  1  0  0  0
 12 13  2  0  0  0
 11 14  1  0  0  0
 14 15  1  0  0  0
 14 16  2  0  0  0
  4  5  1  0  0  0
  5  6  2  0  0  0
 29 23  1  0  0  0
  5  1  1  0  0  0
 13  8  1  0  0  0
 26 30  1  0  0  0
  3  7  1  0  0  0
 15 17  1  0  0  0
M  END
> <minimizedAffinity>
2.21237

> <CNNscore>
0.1615097076

> <CNNaffinity>
6.7169809341

> <CNN_VS>
1.0848575830

> <CNNaffinity_variance>
0.2420643568

$$$$
[H]OC(=O)c1c([H])c([H])c(-n2c(=O)c(C([H])=C([H])[C@]([H])(c3c([H])nc(O[H])c([H])c3C([H])([H])[H])C([H])([H])[H])c([H])n2[H])c([H])c1[H]


 30 32  0  0  0  0  0  0  0  0999 V2000
    7.6933   46.7978  130.5989 C   0  0  0  0  0  0  0  0  0  0  0  0
    6.3602   46.7039  130.2062 C   0  0  0  0  0  0  0  0  0  0  0  0
    6.0349   47.8707  129.6286 N   0  0  0  0  0  0  0  0  0  0  0  0
    7.0775   48.6834  129.6364 N   0  0  0  0  0  0  0  0  0  0  0  0
    8.1279   48.0414  130.2358 C   0  0  0  0  0  0  0  0  0  0  0  0
    9.2686   48.5622  130.3936 O   0  0  0  0  0  0  0  0  0  0  0  0
    5.1008   48.1091  129.2298 H   0  0  0  0  0  0  0  0  0  0  0  0
    7.0741   50.0095  129.0973 C   0  0  0  0  0  0  0  0  0  0  0  0
    7.4373   50.2416  127.7722 C   0  0  0  0  0  0  0  0  0  0  0  0
    7.4386   51.5079  127.2267 C   0  0  0  0  0  0  0  0  0  0  0  0
    7.0756   52.6012  127.9850 C   0  0  0  0  0  0  0  0  0  0  0  0
    6.7190   52.3571  129.2942 C   0  0  0  0  0  0  0  0  0  0  0  0
    6.7136   51.1042  129.8478 C   0  0  0  0  0  0  0  0  0  0  0  0
    7.0683   53.9467  127.4276 C   0  0  0  0  0  0  0  0  0  0  0  0
    8.2347   54.6614  127.3989 O   0  0  0  0  0  0  0  0  0  0  0  0
    6.0120   54.4316  126.9864 O   0  0  0  0  0  0  0  0  0  0  0  0
    8.4903   55.2845  128.1543 H   0  0  0  0  0  0  0  0  0  0  0  0
    8.1541   45.2458  132.4486 C   0  0  0  0  0  0  0  0  0  0  0  0
    8.4298   45.7408  131.2636 C   0  0  0  0  0  0  0  0  0  0  0  0
    8.9948   44.1567  133.0182 C   0  0  0  0  0  0  0  0  0  0  0  0
    8.2775   42.8303  132.8870 C   0  0  0  0  0  0  0  0  0  0  0  0
   11.1302   45.9026  133.7998 C   0  0  0  0  0  0  0  0  0  0  0  0
   11.3487   44.9363  132.6918 C   0  0  0  0  0  0  0  0  0  0  0  0
   12.5780   44.8831  132.0400 C   0  0  0  0  0  0  0  0  0  0  0  0
   12.7746   43.9837  131.0169 C   0  0  0  0  0  0  0  0  0  0  0  0
   14.0059   43.9262  130.3594 O   0  0  0  0  0  0  0  0  0  0  0  0
   11.7500   43.1868  130.6923 N   0  0  0  0  0  0  0  0  0  0  0  0
   10.5500   43.1990  131.2876 C   0  0  0  0  0  0  0  0  0  0  0  0
   10.3160   44.0987  132.3295 C   0  0  0  0  0  0  0  0  0  0  0  0
   14.5678   43.0752  130.4589 H   0  0  0  0  0  0  0  0  0  0  0  0
 22 23  1  0  0  0
 23 24  2  0  0  0
 24 25  1  0  0  0
 25 26  1  0  0  0
 25 27  2  0  0  0
 27 28  1  0  0  0
 28 29  2  0  0  0
 29 20  1  0  0  0
 20 21  1  0  0  0
 20 18  1  0  0  0
 18 19  2  0  0  0
 19  1  1  0  0  0
  1  2  2  0  0  0
  2  3  1  0  0  0
  3  4  1  0  0  0
  4  8  1  0  0  0
  8  9  2  0  0  0
  9 10  1  0  0  0
 10 11  2  0  0  0
 11 12  1  0  0  0
 12 13  2  0  0  0
 11 14  1  0  0  0
 14 15  1  0  0  0
 14 16  2  0  0  0
  4  5  1  0  0  0
  5  6  2  0  0  0
 29 23  1  0  0  0
  5  1  1  0  0  0
 13  8  1  0  0  0
 26 30  1  0  0  0
  3  7  1  0  0  0
 15 17  1  0  0  0
M  END
> <minimizedAffinity>
2.66612

> <CNNscore>
0.1521354616

> <CNNaffinity>
6.6947736740

> <CNN_VS>
1.0185124874

> <CNNaffinity_variance>
0.3320132196

$$$$
[H]c1c([H])c(N([H])C(=O)C([H])([H])C([H])([H])C([H])([H])C([H])([H])C(=O)N([H])c2c([H])c([H])c(Cl)c([H])c2[H])c([H])c(C([H])([H])C([H])(C([H])([H])[H])C([H])([H])[H])c1[H]


 29 30  0  0  0  0  0  0  0  0999 V2000
    6.7469   54.5697  127.2526 C   0  0  0  0  0  0  0  0  0  0  0  0
    6.8069   52.4336  128.5030 N   0  0  0  0  0  0  0  0  0  0  0  0
    7.1989   53.1526  127.3743 C   0  0  0  0  0  0  0  0  0  0  0  0
    7.9019   52.6733  126.4704 O   0  0  0  0  0  0  0  0  0  0  0  0
    6.2015   52.9434  129.2194 H   0  0  0  0  0  0  0  0  0  0  0  0
    8.3493   49.6057  130.3163 C   0  0  0  0  0  0  0  0  0  0  0  0
    7.9377   48.5250  129.5877 C   0  0  0  0  0  0  0  0  0  0  0  0
    7.1464   48.7156  128.4779 C   0  0  0  0  0  0  0  0  0  0  0  0
    6.7470   49.9922  128.0688 C   0  0  0  0  0  0  0  0  0  0  0  0
    7.1457   51.0948  128.7827 C   0  0  0  0  0  0  0  0  0  0  0  0
    7.9544   50.8450  129.9095 C   0  0  0  0  0  0  0  0  0  0  0  0
    9.1921   49.3809  131.4948 C   0  0  0  0  0  0  0  0  0  0  0  0
    9.6213   47.9068  133.4499 C   0  0  0  0  0  0  0  0  0  0  0  0
    9.1023   47.9594  132.0106 C   0  0  0  0  0  0  0  0  0  0  0  0
    9.9535   47.0325  131.1916 C   0  0  0  0  0  0  0  0  0  0  0  0
    6.9246   55.0722  125.8507 C   0  0  0  0  0  0  0  0  0  0  0  0
    5.9402   56.1588  125.5215 C   0  0  0  0  0  0  0  0  0  0  0  0
    5.1048   55.9050  124.3072 C   0  0  0  0  0  0  0  0  0  0  0  0
    4.0916   54.8360  124.5738 C   0  0  0  0  0  0  0  0  0  0  0  0
    3.8504   54.0120  123.6659 O   0  0  0  0  0  0  0  0  0  0  0  0
    3.4514   54.8003  125.8330 N   0  0  0  0  0  0  0  0  0  0  0  0
    3.7192   55.5450  126.5469 H   0  0  0  0  0  0  0  0  0  0  0  0
    2.4889   53.8558  126.2262 C   0  0  0  0  0  0  0  0  0  0  0  0
    2.6875   52.4952  125.9220 C   0  0  0  0  0  0  0  0  0  0  0  0
    1.7905   51.5147  126.2513 C   0  0  0  0  0  0  0  0  0  0  0  0
    0.6243   51.8092  126.9095 C   0  0  0  0  0  0  0  0  0  0  0  0
   -0.5458   50.5811  127.3470 Cl  0  0  0  0  0  0  0  0  0  0  0  0
    0.3918   53.1243  127.2246 C   0  0  0  0  0  0  0  0  0  0  0  0
    1.3167   54.1225  126.8828 C   0  0  0  0  0  0  0  0  0  0  0  0
 13 14  1  0  0  0
 14 15  1  0  0  0
 14 12  1  0  0  0
 12  6  1  0  0  0
  6  7  2  0  0  0
  7  8  1  0  0  0
  8  9  2  0  0  0
  9 10  1  0  0  0
 10  2  1  0  0  0
  2  3  1  0  0  0
  3  4  2  0  0  0
  3  1  1  0  0  0
  1 16  1  0  0  0
 16 17  1  0  0  0
 17 18  1  0  0  0
 18 19  1  0  0  0
 19 20  2  0  0  0
 19 21  1  0  0  0
 21 23  1  0  0  0
 23 24  2  0  0  0
 24 25  1  0  0  0
 25 26  2  0  0  0
 26 27  1  0  0  0
 26 28  1  0  0  0
 28 29  2  0  0  0
 10 11  2  0  0  0
 11  6  1  0  0  0
 29 23  1  0  0  0
  2  5  1  0  0  0
 21 22  1  0  0  0
M  END
> <minimizedAffinity>
0.39275

> <CNNscore>
0.6019818783

> <CNNaffinity>
6.1350164413

> <CNN_VS>
3.6931686401

> <CNNaffinity_variance>
0.2946832180

$$$$
[H]c1c([H])c(N([H])C(=O)C([H])([H])C([H])([H])C([H])([H])C([H])([H])C(=O)N([H])c2c([H])c([H])c(Cl)c([H])c2[H])c([H])c(C([H])([H])C([H])(C([H])([H])[H])C([H])([H])[H])c1[H]


 29 30  0  0  0  0  0  0  0  0999 V2000
    9.1124   46.0450  127.9507 C   0  0  0  0  0  0  0  0  0  0  0  0
    9.5425   43.6586  127.4508 N   0  0  0  0  0  0  0  0  0  0  0  0
    9.4175   44.6594  128.4137 C   0  0  0  0  0  0  0  0  0  0  0  0
    9.5472   44.4547  129.6312 O   0  0  0  0  0  0  0  0  0  0  0  0
    9.4117   43.9448  126.4308 H   0  0  0  0  0  0  0  0  0  0  0  0
   10.8216   40.2504  126.8083 C   0  0  0  0  0  0  0  0  0  0  0  0
   10.5239   39.5967  127.9712 C   0  0  0  0  0  0  0  0  0  0  0  0
    9.8875   40.2732  128.9869 C   0  0  0  0  0  0  0  0  0  0  0  0
    9.5328   41.6207  128.8649 C   0  0  0  0  0  0  0  0  0  0  0  0
    9.8205   42.3013  127.7080 C   0  0  0  0  0  0  0  0  0  0  0  0
   10.4720   41.5631  126.6998 C   0  0  0  0  0  0  0  0  0  0  0  0
   11.4993   39.5114  125.7386 C   0  0  0  0  0  0  0  0  0  0  0  0
    9.0955   39.2465  125.1631 C   0  0  0  0  0  0  0  0  0  0  0  0
   10.5288   38.9106  124.7427 C   0  0  0  0  0  0  0  0  0  0  0  0
   10.6479   37.4142  124.7074 C   0  0  0  0  0  0  0  0  0  0  0  0
    9.8127   47.0626  128.8013 C   0  0  0  0  0  0  0  0  0  0  0  0
    8.9086   48.2108  129.1509 C   0  0  0  0  0  0  0  0  0  0  0  0
    7.5976   47.8189  129.7545 C   0  0  0  0  0  0  0  0  0  0  0  0
    7.8047   47.0686  131.0330 C   0  0  0  0  0  0  0  0  0  0  0  0
    6.8316   46.4559  131.5219 O   0  0  0  0  0  0  0  0  0  0  0  0
    9.0838   47.0821  131.6333 N   0  0  0  0  0  0  0  0  0  0  0  0
    9.8548   47.6331  131.1458 H   0  0  0  0  0  0  0  0  0  0  0  0
    9.4268   46.4212  132.8245 C   0  0  0  0  0  0  0  0  0  0  0  0
   10.6736   45.7741  132.9245 C   0  0  0  0  0  0  0  0  0  0  0  0
   11.0766   45.0916  134.0408 C   0  0  0  0  0  0  0  0  0  0  0  0
   10.2719   44.9983  135.1469 C   0  0  0  0  0  0  0  0  0  0  0  0
   10.7546   44.1342  136.5922 Cl  0  0  0  0  0  0  0  0  0  0  0  0
    9.0474   45.6152  135.0908 C   0  0  0  0  0  0  0  0  0  0  0  0
    8.6426   46.3121  133.9423 C   0  0  0  0  0  0  0  0  0  0  0  0
 13 14  1  0  0  0
 14 15  1  0  0  0
 14 12  1  0  0  0
 12  6  1  0  0  0
  6  7  2  0  0  0
  7  8  1  0  0  0
  8  9  2  0  0  0
  9 10  1  0  0  0
 10  2  1  0  0  0
  2  3  1  0  0  0
  3  4  2  0  0  0
  3  1  1  0  0  0
  1 16  1  0  0  0
 16 17  1  0  0  0
 17 18  1  0  0  0
 18 19  1  0  0  0
 19 20  2  0  0  0
 19 21  1  0  0  0
 21 23  1  0  0  0
 23 24  2  0  0  0
 24 25  1  0  0  0
 25 26  2  0  0  0
 26 27  1  0  0  0
 26 28  1  0  0  0
 28 29  2  0  0  0
 10 11  2  0  0  0
 11  6  1  0  0  0
 29 23  1  0  0  0
  2  5  1  0  0  0
 21 22  1  0  0  0
M  END
> <minimizedAffinity>
21.70835

> <CNNscore>
0.4446700215

> <CNNaffinity>
6.7587532997

> <CNN_VS>
3.0054149628

> <CNNaffinity_variance>
1.0854995251

$$$$
[H]c1c([H])c(N([H])C(=O)C([H])([H])C([H])([H])C([H])([H])C([H])([H])C(=O)N([H])c2c([H])c([H])c(Cl)c([H])c2[H])c([H])c(C([H])([H])C([H])(C([H])([H])[H])C([H])([H])[H])c1[H]


 29 30  0  0  0  0  0  0  0  0999 V2000
    6.8489   54.1323  127.7064 C   0  0  0  0  0  0  0  0  0  0  0  0
    6.8318   52.1191  129.1476 N   0  0  0  0  0  0  0  0  0  0  0  0
    7.4740   52.8517  128.1499 C   0  0  0  0  0  0  0  0  0  0  0  0
    8.5351   52.4921  127.6153 O   0  0  0  0  0  0  0  0  0  0  0  0
    5.9232   52.5206  129.5385 H   0  0  0  0  0  0  0  0  0  0  0  0
    7.2962   48.4611  129.4080 C   0  0  0  0  0  0  0  0  0  0  0  0
    8.0713   48.3385  130.5271 C   0  0  0  0  0  0  0  0  0  0  0  0
    8.4483   49.4668  131.2192 C   0  0  0  0  0  0  0  0  0  0  0  0
    8.0593   50.7463  130.8093 C   0  0  0  0  0  0  0  0  0  0  0  0
    7.2813   50.8982  129.6885 C   0  0  0  0  0  0  0  0  0  0  0  0
    6.9230   49.7122  129.0170 C   0  0  0  0  0  0  0  0  0  0  0  0
    6.9051   47.2467  128.6857 C   0  0  0  0  0  0  0  0  0  0  0  0
    7.4112   45.4135  130.2866 C   0  0  0  0  0  0  0  0  0  0  0  0
    7.8264   46.0787  128.9716 C   0  0  0  0  0  0  0  0  0  0  0  0
    9.2475   46.5371  129.1288 C   0  0  0  0  0  0  0  0  0  0  0  0
    7.7032   54.8224  126.6851 C   0  0  0  0  0  0  0  0  0  0  0  0
    6.8986   55.7607  125.8307 C   0  0  0  0  0  0  0  0  0  0  0  0
    6.4047   55.1759  124.5458 C   0  0  0  0  0  0  0  0  0  0  0  0
    5.0253   54.6190  124.7114 C   0  0  0  0  0  0  0  0  0  0  0  0
    4.3616   54.3708  123.6821 O   0  0  0  0  0  0  0  0  0  0  0  0
    4.5303   54.3970  126.0162 N   0  0  0  0  0  0  0  0  0  0  0  0
    5.1667   54.6395  126.8361 H   0  0  0  0  0  0  0  0  0  0  0  0
    3.2630   53.8754  126.3242 C   0  0  0  0  0  0  0  0  0  0  0  0
    2.9502   52.5517  125.9594 C   0  0  0  0  0  0  0  0  0  0  0  0
    1.7333   51.9741  126.2042 C   0  0  0  0  0  0  0  0  0  0  0  0
    0.7303   52.6670  126.8318 C   0  0  0  0  0  0  0  0  0  0  0  0
   -0.8383   51.9603  127.1618 Cl  0  0  0  0  0  0  0  0  0  0  0  0
    0.9939   53.9611  127.2040 C   0  0  0  0  0  0  0  0  0  0  0  0
    2.2439   54.5449  126.9485 C   0  0  0  0  0  0  0  0  0  0  0  0
 13 14  1  0  0  0
 14 15  1  0  0  0
 14 12  1  0  0  0
 12  6  1  0  0  0
  6  7  2  0  0  0
  7  8  1  0  0  0
  8  9  2  0  0  0
  9 10  1  0  0  0
 10  2  1  0  0  0
  2  3  1  0  0  0
  3  4  2  0  0  0
  3  1  1  0  0  0
  1 16  1  0  0  0
 16 17  1  0  0  0
 17 18  1  0  0  0
 18 19  1  0  0  0
 19 20  2  0  0  0
 19 21  1  0  0  0
 21 23  1  0  0  0
 23 24  2  0  0  0
 24 25  1  0  0  0
 25 26  2  0  0  0
 26 27  1  0  0  0
 26 28  1  0  0  0
 28 29  2  0  0  0
 10 11  2  0  0  0
 11  6  1  0  0  0
 29 23  1  0  0  0
  2  5  1  0  0  0
 21 22  1  0  0  0
M  END
> <minimizedAffinity>
7.91794

> <CNNscore>
0.4342230856

> <CNNaffinity>
6.1279029846

> <CNN_VS>
2.6608769894

> <CNNaffinity_variance>
0.4445787966

$$$$
[H]c1c([H])c(N([H])C(=O)C([H])([H])C([H])([H])C([H])([H])C([H])([H])C(=O)N([H])c2c([H])c([H])c(Cl)c([H])c2[H])c([H])c(C([H])([H])C([H])(C([H])([H])[H])C([H])([H])[H])c1[H]


 29 30  0  0  0  0  0  0  0  0999 V2000
    7.5293   48.2771  128.8761 C   0  0  0  0  0  0  0  0  0  0  0  0
    8.5993   48.1627  131.1060 N   0  0  0  0  0  0  0  0  0  0  0  0
    7.9532   47.4886  130.0703 C   0  0  0  0  0  0  0  0  0  0  0  0
    7.7146   46.2706  130.0933 O   0  0  0  0  0  0  0  0  0  0  0  0
    8.7538   49.2117  130.9828 H   0  0  0  0  0  0  0  0  0  0  0  0
   10.7847   46.1234  133.2807 C   0  0  0  0  0  0  0  0  0  0  0  0
   10.2385   46.3186  134.5184 C   0  0  0  0  0  0  0  0  0  0  0  0
    9.1314   47.1250  134.6527 C   0  0  0  0  0  0  0  0  0  0  0  0
    8.5425   47.7565  133.5523 C   0  0  0  0  0  0  0  0  0  0  0  0
    9.0712   47.5781  132.2980 C   0  0  0  0  0  0  0  0  0  0  0  0
   10.2037   46.7435  132.2153 C   0  0  0  0  0  0  0  0  0  0  0  0
   11.9636   45.2603  133.1593 C   0  0  0  0  0  0  0  0  0  0  0  0
   13.0782   43.1300  133.7912 C   0  0  0  0  0  0  0  0  0  0  0  0
   11.7543   43.8989  133.7899 C   0  0  0  0  0  0  0  0  0  0  0  0
   10.7636   43.0870  133.0065 C   0  0  0  0  0  0  0  0  0  0  0  0
    6.0373   48.2638  128.7249 C   0  0  0  0  0  0  0  0  0  0  0  0
    5.4250   49.5703  129.1446 C   0  0  0  0  0  0  0  0  0  0  0  0
    6.3905   50.5690  129.6988 C   0  0  0  0  0  0  0  0  0  0  0  0
    7.0977   51.2926  128.5958 C   0  0  0  0  0  0  0  0  0  0  0  0
    8.0858   50.7405  128.0665 O   0  0  0  0  0  0  0  0  0  0  0  0
    6.6237   52.5631  128.1985 N   0  0  0  0  0  0  0  0  0  0  0  0
    5.7744   52.9572  128.7076 H   0  0  0  0  0  0  0  0  0  0  0  0
    7.1797   53.3527  127.1784 C   0  0  0  0  0  0  0  0  0  0  0  0
    7.3630   54.7326  127.3913 C   0  0  0  0  0  0  0  0  0  0  0  0
    7.8790   55.5754  126.4437 C   0  0  0  0  0  0  0  0  0  0  0  0
    8.2540   55.1129  125.2086 C   0  0  0  0  0  0  0  0  0  0  0  0
    8.9180   56.1614  123.9724 Cl  0  0  0  0  0  0  0  0  0  0  0  0
    8.0916   53.7732  124.9599 C   0  0  0  0  0  0  0  0  0  0  0  0
    7.5615   52.9171  125.9371 C   0  0  0  0  0  0  0  0  0  0  0  0
 13 14  1  0  0  0
 14 15  1  0  0  0
 14 12  1  0  0  0
 12  6  1  0  0  0
  6  7  2  0  0  0
  7  8  1  0  0  0
  8  9  2  0  0  0
  9 10  1  0  0  0
 10  2  1  0  0  0
  2  3  1  0  0  0
  3  4  2  0  0  0
  3  1  1  0  0  0
  1 16  1  0  0  0
 16 17  1  0  0  0
 17 18  1  0  0  0
 18 19  1  0  0  0
 19 20  2  0  0  0
 19 21  1  0  0  0
 21 23  1  0  0  0
 23 24  2  0  0  0
 24 25  1  0  0  0
 25 26  2  0  0  0
 26 27  1  0  0  0
 26 28  1  0  0  0
 28 29  2  0  0  0
 10 11  2  0  0  0
 11  6  1  0  0  0
 29 23  1  0  0  0
  2  5  1  0  0  0
 21 22  1  0  0  0
M  END
> <minimizedAffinity>
-0.11235

> <CNNscore>
0.3999938667

> <CNNaffinity>
6.6087646484

> <CNN_VS>
2.6434652805

> <CNNaffinity_variance>
0.2880357802

$$$$
[H]c1c([H])c(N([H])C(=O)C([H])([H])C([H])([H])C([H])([H])C([H])([H])C(=O)N([H])c2c([H])c([H])c(Cl)c([H])c2[H])c([H])c(C([H])([H])C([H])(C([H])([H])[H])C([H])([H])[H])c1[H]


 29 30  0  0  0  0  0  0  0  0999 V2000
   10.2412   47.4697  128.6254 C   0  0  0  0  0  0  0  0  0  0  0  0
    9.8068   45.5093  130.0739 N   0  0  0  0  0  0  0  0  0  0  0  0
   10.6006   46.0978  129.0900 C   0  0  0  0  0  0  0  0  0  0  0  0
   11.5868   45.5384  128.5843 O   0  0  0  0  0  0  0  0  0  0  0  0
    8.9818   46.0795  130.4398 H   0  0  0  0  0  0  0  0  0  0  0  0
   11.3389   42.9096  132.2090 C   0  0  0  0  0  0  0  0  0  0  0  0
   10.5866   41.8057  131.9198 C   0  0  0  0  0  0  0  0  0  0  0  0
    9.5617   41.9024  131.0064 C   0  0  0  0  0  0  0  0  0  0  0  0
    9.2635   43.1059  130.3591 C   0  0  0  0  0  0  0  0  0  0  0  0
   10.0028   44.2301  130.6312 C   0  0  0  0  0  0  0  0  0  0  0  0
   11.0400   44.0773  131.5730 C   0  0  0  0  0  0  0  0  0  0  0  0
   12.4263   42.7851  133.1845 C   0  0  0  0  0  0  0  0  0  0  0  0
   11.0586   43.8478  134.9676 C   0  0  0  0  0  0  0  0  0  0  0  0
   12.3988   43.8825  134.2283 C   0  0  0  0  0  0  0  0  0  0  0  0
   12.5265   45.2366  133.5923 C   0  0  0  0  0  0  0  0  0  0  0  0
   10.7598   48.5111  129.5720 C   0  0  0  0  0  0  0  0  0  0  0  0
   11.2718   47.8985  130.8450 C   0  0  0  0  0  0  0  0  0  0  0  0
   10.3859   48.0865  132.0352 C   0  0  0  0  0  0  0  0  0  0  0  0
    8.9500   48.1685  131.6207 C   0  0  0  0  0  0  0  0  0  0  0  0
    8.1271   47.4221  132.1928 O   0  0  0  0  0  0  0  0  0  0  0  0
    8.5831   49.0804  130.6056 N   0  0  0  0  0  0  0  0  0  0  0  0
    9.3530   49.6767  130.1724 H   0  0  0  0  0  0  0  0  0  0  0  0
    7.2787   49.2709  130.1203 C   0  0  0  0  0  0  0  0  0  0  0  0
    6.5656   50.4295  130.4839 C   0  0  0  0  0  0  0  0  0  0  0  0
    5.2848   50.6820  130.0713 C   0  0  0  0  0  0  0  0  0  0  0  0
    4.6111   49.8023  129.2638 C   0  0  0  0  0  0  0  0  0  0  0  0
    2.9726   50.0926  128.7162 Cl  0  0  0  0  0  0  0  0  0  0  0  0
    5.2703   48.6597  128.8862 C   0  0  0  0  0  0  0  0  0  0  0  0
    6.5828   48.4091  129.3144 C   0  0  0  0  0  0  0  0  0  0  0  0
 13 14  1  0  0  0
 14 15  1  0  0  0
 14 12  1  0  0  0
 12  6  1  0  0  0
  6  7  2  0  0  0
  7  8  1  0  0  0
  8  9  2  0  0  0
  9 10  1  0  0  0
 10  2  1  0  0  0
  2  3  1  0  0  0
  3  4  2  0  0  0
  3  1  1  0  0  0
  1 16  1  0  0  0
 16 17  1  0  0  0
 17 18  1  0  0  0
 18 19  1  0  0  0
 19 20  2  0  0  0
 19 21  1  0  0  0
 21 23  1  0  0  0
 23 24  2  0  0  0
 24 25  1  0  0  0
 25 26  2  0  0  0
 26 27  1  0  0  0
 26 28  1  0  0  0
 28 29  2  0  0  0
 10 11  2  0  0  0
 11  6  1  0  0  0
 29 23  1  0  0  0
  2  5  1  0  0  0
 21 22  1  0  0  0
M  END
> <minimizedAffinity>
3.10829

> <CNNscore>
0.3063650727

> <CNNaffinity>
6.9368944168

> <CNN_VS>
2.1252222061

> <CNNaffinity_variance>
0.3519495428

$$$$
[H]c1c([H])c(N([H])C(=O)C([H])([H])C([H])([H])C([H])([H])C([H])([H])C(=O)N([H])c2c([H])c([H])c(Cl)c([H])c2[H])c([H])c(C([H])([H])C([H])(C([H])([H])[H])C([H])([H])[H])c1[H]


 29 30  0  0  0  0  0  0  0  0999 V2000
   10.1553   46.8298  127.4736 C   0  0  0  0  0  0  0  0  0  0  0  0
    9.2174   45.2667  129.1491 N   0  0  0  0  0  0  0  0  0  0  0  0
   10.3492   45.7801  128.5166 C   0  0  0  0  0  0  0  0  0  0  0  0
   11.5044   45.4080  128.7778 O   0  0  0  0  0  0  0  0  0  0  0  0
    8.2711   45.6578  128.8475 H   0  0  0  0  0  0  0  0  0  0  0  0
   10.4557   43.3463  132.0548 C   0  0  0  0  0  0  0  0  0  0  0  0
    9.4502   42.4450  132.2663 C   0  0  0  0  0  0  0  0  0  0  0  0
    8.3462   42.4539  131.4445 C   0  0  0  0  0  0  0  0  0  0  0  0
    8.2203   43.3646  130.3904 C   0  0  0  0  0  0  0  0  0  0  0  0
    9.2151   44.2810  130.1561 C   0  0  0  0  0  0  0  0  0  0  0  0
   10.3231   44.2294  131.0254 C   0  0  0  0  0  0  0  0  0  0  0  0
   11.6233   43.3196  132.9413 C   0  0  0  0  0  0  0  0  0  0  0  0
   12.7041   45.4808  132.3576 C   0  0  0  0  0  0  0  0  0  0  0  0
   12.8450   43.9570  132.3121 C   0  0  0  0  0  0  0  0  0  0  0  0
   12.9791   43.5608  130.8700 C   0  0  0  0  0  0  0  0  0  0  0  0
   10.0416   48.1903  128.0945 C   0  0  0  0  0  0  0  0  0  0  0  0
   10.1771   48.1311  129.5899 C   0  0  0  0  0  0  0  0  0  0  0  0
    9.1321   48.8869  130.3473 C   0  0  0  0  0  0  0  0  0  0  0  0
    9.1157   48.4735  131.7858 C   0  0  0  0  0  0  0  0  0  0  0  0
    8.7800   49.3217  132.6397 O   0  0  0  0  0  0  0  0  0  0  0  0
    9.4779   47.1492  132.1201 N   0  0  0  0  0  0  0  0  0  0  0  0
    9.7517   46.4941  131.3252 H   0  0  0  0  0  0  0  0  0  0  0  0
    9.5024   46.6197  133.4209 C   0  0  0  0  0  0  0  0  0  0  0  0
   10.7104   46.6136  134.1447 C   0  0  0  0  0  0  0  0  0  0  0  0
   10.8247   46.0991  135.4083 C   0  0  0  0  0  0  0  0  0  0  0  0
    9.7465   45.5496  136.0530 C   0  0  0  0  0  0  0  0  0  0  0  0
    9.8555   44.8827  137.6691 Cl  0  0  0  0  0  0  0  0  0  0  0  0
    8.5496   45.5354  135.3822 C   0  0  0  0  0  0  0  0  0  0  0  0
    8.4420   46.0647  134.0872 C   0  0  0  0  0  0  0  0  0  0  0  0
 13 14  1  0  0  0
 14 15  1  0  0  0
 14 12  1  0  0  0
 12  6  1  0  0  0
  6  7  2  0  0  0
  7  8  1  0  0  0
  8  9  2  0  0  0
  9 10  1  0  0  0
 10  2  1  0  0  0
  2  3  1  0  0  0
  3  4  2  0  0  0
  3  1  1  0  0  0
  1 16  1  0  0  0
 16 17  1  0  0  0
 17 18  1  0  0  0
 18 19  1  0  0  0
 19 20  2  0  0  0
 19 21  1  0  0  0
 21 23  1  0  0  0
 23 24  2  0  0  0
 24 25  1  0  0  0
 25 26  2  0  0  0
 26 27  1  0  0  0
 26 28  1  0  0  0
 28 29  2  0  0  0
 10 11  2  0  0  0
 11  6  1  0  0  0
 29 23  1  0  0  0
  2  5  1  0  0  0
 21 22  1  0  0  0
M  END
> <minimizedAffinity>
4.60404

> <CNNscore>
0.2841014564

> <CNNaffinity>
7.2606124878

> <CNN_VS>
2.0627505779

> <CNNaffinity_variance>
1.1343041658

$$$$
[H]c1c([H])c(N([H])C(=O)C([H])([H])C([H])([H])C([H])([H])C([H])([H])C(=O)N([H])c2c([H])c([H])c(Cl)c([H])c2[H])c([H])c(C([H])([H])C([H])(C([H])([H])[H])C([H])([H])[H])c1[H]


 29 30  0  0  0  0  0  0  0  0999 V2000
    9.9112   46.8107  128.1785 C   0  0  0  0  0  0  0  0  0  0  0  0
   11.0092   46.1851  130.3076 N   0  0  0  0  0  0  0  0  0  0  0  0
   10.1657   45.8150  129.2608 C   0  0  0  0  0  0  0  0  0  0  0  0
    9.6188   44.7030  129.1858 O   0  0  0  0  0  0  0  0  0  0  0  0
   11.4266   47.1670  130.2732 H   0  0  0  0  0  0  0  0  0  0  0  0
   10.7013   43.4503  132.7756 C   0  0  0  0  0  0  0  0  0  0  0  0
   11.8418   43.5880  133.5161 C   0  0  0  0  0  0  0  0  0  0  0  0
   12.7304   44.5947  133.2141 C   0  0  0  0  0  0  0  0  0  0  0  0
   12.5004   45.4892  132.1637 C   0  0  0  0  0  0  0  0  0  0  0  0
   11.3632   45.3733  131.4036 C   0  0  0  0  0  0  0  0  0  0  0  0
   10.4868   44.3268  131.7543 C   0  0  0  0  0  0  0  0  0  0  0  0
    9.7677   42.3717  133.1141 C   0  0  0  0  0  0  0  0  0  0  0  0
    7.3710   41.8009  133.4452 C   0  0  0  0  0  0  0  0  0  0  0  0
    8.3560   42.6566  132.6442 C   0  0  0  0  0  0  0  0  0  0  0  0
    8.1863   42.3002  131.1956 C   0  0  0  0  0  0  0  0  0  0  0  0
    9.1913   48.0131  128.7126 C   0  0  0  0  0  0  0  0  0  0  0  0
    7.7902   48.1045  128.1772 C   0  0  0  0  0  0  0  0  0  0  0  0
    6.7140   48.0276  129.2129 C   0  0  0  0  0  0  0  0  0  0  0  0
    7.1975   47.2994  130.4280 C   0  0  0  0  0  0  0  0  0  0  0  0
    6.8279   46.1172  130.5934 O   0  0  0  0  0  0  0  0  0  0  0  0
    8.0471   47.9723  131.3346 N   0  0  0  0  0  0  0  0  0  0  0  0
    8.3095   48.9812  131.1131 H   0  0  0  0  0  0  0  0  0  0  0  0
    8.5821   47.4166  132.5086 C   0  0  0  0  0  0  0  0  0  0  0  0
    7.9707   46.2846  133.0814 C   0  0  0  0  0  0  0  0  0  0  0  0
    8.4162   45.6943  134.2336 C   0  0  0  0  0  0  0  0  0  0  0  0
    9.5056   46.1826  134.9079 C   0  0  0  0  0  0  0  0  0  0  0  0
   10.1038   45.4531  136.3839 Cl  0  0  0  0  0  0  0  0  0  0  0  0
   10.1308   47.2856  134.3832 C   0  0  0  0  0  0  0  0  0  0  0  0
    9.6669   47.8842  133.2021 C   0  0  0  0  0  0  0  0  0  0  0  0
 13 14  1  0  0  0
 14 15  1  0  0  0
 14 12  1  0  0  0
 12  6  1  0  0  0
  6  7  2  0  0  0
  7  8  1  0  0  0
  8  9  2  0  0  0
  9 10  1  0  0  0
 10  2  1  0  0  0
  2  3  1  0  0  0
  3  4  2  0  0  0
  3  1  1  0  0  0
  1 16  1  0  0  0
 16 17  1  0  0  0
 17 18  1  0  0  0
 18 19  1  0  0  0
 19 20  2  0  0  0
 19 21  1  0  0  0
 21 23  1  0  0  0
 23 24  2  0  0  0
 24 25  1  0  0  0
 25 26  2  0  0  0
 26 27  1  0  0  0
 26 28  1  0  0  0
 28 29  2  0  0  0
 10 11  2  0  0  0
 11  6  1  0  0  0
 29 23  1  0  0  0
  2  5  1  0  0  0
 21 22  1  0  0  0
M  END
> <minimizedAffinity>
-2.19218

> <CNNscore>
0.2102835178

> <CNNaffinity>
7.0832967758

> <CNN_VS>
1.4895005226

> <CNNaffinity_variance>
0.1587244719

$$$$
[H]c1c([H])c(N([H])C(=O)C([H])([H])C([H])([H])C([H])([H])C([H])([H])C(=O)N([H])c2c([H])c([H])c(Cl)c([H])c2[H])c([H])c(C([H])([H])C([H])(C([H])([H])[H])C([H])([H])[H])c1[H]


 29 30  0  0  0  0  0  0  0  0999 V2000
    9.0391   49.6908  123.5653 C   0  0  0  0  0  0  0  0  0  0  0  0
    8.2289   51.9409  122.9243 N   0  0  0  0  0  0  0  0  0  0  0  0
    9.0911   51.1754  123.7086 C   0  0  0  0  0  0  0  0  0  0  0  0
    9.8959   51.6666  124.5163 O   0  0  0  0  0  0  0  0  0  0  0  0
    7.5768   51.4156  122.2623 H   0  0  0  0  0  0  0  0  0  0  0  0
    8.2633   55.3650  124.3167 C   0  0  0  0  0  0  0  0  0  0  0  0
    8.0676   56.1393  123.2074 C   0  0  0  0  0  0  0  0  0  0  0  0
    7.9141   55.5390  121.9785 C   0  0  0  0  0  0  0  0  0  0  0  0
    7.9524   54.1488  121.8282 C   0  0  0  0  0  0  0  0  0  0  0  0
    8.1482   53.3477  122.9256 C   0  0  0  0  0  0  0  0  0  0  0  0
    8.2993   54.0118  124.1593 C   0  0  0  0  0  0  0  0  0  0  0  0
    8.4240   56.0244  125.6163 C   0  0  0  0  0  0  0  0  0  0  0  0
    7.7146   54.0134  126.8940 C   0  0  0  0  0  0  0  0  0  0  0  0
    7.4535   55.5031  126.6561 C   0  0  0  0  0  0  0  0  0  0  0  0
    6.0337   55.6414  126.1875 C   0  0  0  0  0  0  0  0  0  0  0  0
    7.9249   49.1103  124.3844 C   0  0  0  0  0  0  0  0  0  0  0  0
    8.4179   48.0320  125.3075 C   0  0  0  0  0  0  0  0  0  0  0  0
    8.6733   48.4745  126.7131 C   0  0  0  0  0  0  0  0  0  0  0  0
    7.3860   48.6551  127.4551 C   0  0  0  0  0  0  0  0  0  0  0  0
    6.9168   49.8094  127.5504 O   0  0  0  0  0  0  0  0  0  0  0  0
    6.7556   47.5214  128.0152 N   0  0  0  0  0  0  0  0  0  0  0  0
    7.2292   46.5755  127.8854 H   0  0  0  0  0  0  0  0  0  0  0  0
    5.5460   47.5369  128.7294 C   0  0  0  0  0  0  0  0  0  0  0  0
    4.8786   46.3245  128.9899 C   0  0  0  0  0  0  0  0  0  0  0  0
    3.6872   46.2536  129.6607 C   0  0  0  0  0  0  0  0  0  0  0  0
    3.0646   47.3830  130.1262 C   0  0  0  0  0  0  0  0  0  0  0  0
    1.5407   47.3303  130.9886 Cl  0  0  0  0  0  0  0  0  0  0  0  0
    3.6818   48.5861  129.8930 C   0  0  0  0  0  0  0  0  0  0  0  0
    4.9026   48.6491  129.2042 C   0  0  0  0  0  0  0  0  0  0  0  0
 13 14  1  0  0  0
 14 15  1  0  0  0
 14 12  1  0  0  0
 12  6  1  0  0  0
  6  7  2  0  0  0
  7  8  1  0  0  0
  8  9  2  0  0  0
  9 10  1  0  0  0
 10  2  1  0  0  0
  2  3  1  0  0  0
  3  4  2  0  0  0
  3  1  1  0  0  0
  1 16  1  0  0  0
 16 17  1  0  0  0
 17 18  1  0  0  0
 18 19  1  0  0  0
 19 20  2  0  0  0
 19 21  1  0  0  0
 21 23  1  0  0  0
 23 24  2  0  0  0
 24 25  1  0  0  0
 25 26  2  0  0  0
 26 27  1  0  0  0
 26 28  1  0  0  0
 28 29  2  0  0  0
 10 11  2  0  0  0
 11  6  1  0  0  0
 29 23  1  0  0  0
  2  5  1  0  0  0
 21 22  1  0  0  0
M  END
> <minimizedAffinity>
34.48566

> <CNNscore>
0.1766997576

> <CNNaffinity>
5.5658674240

> <CNN_VS>
0.9834874272

> <CNNaffinity_variance>
0.3712390065

$$$$
[H]c1c([H])c(N([H])C(=O)C([H])([H])C([H])([H])C([H])([H])C([H])([H])C(=O)N([H])c2c([H])c([H])c(Cl)c([H])c2[H])c([H])c(C([H])([H])C([H])(C([H])([H])[H])C([H])([H])[H])c1[H]


 29 30  0  0  0  0  0  0  0  0999 V2000
    6.2699   47.7772  129.1783 C   0  0  0  0  0  0  0  0  0  0  0  0
    8.5078   46.7560  128.8970 N   0  0  0  0  0  0  0  0  0  0  0  0
    7.2879   46.7596  129.5725 C   0  0  0  0  0  0  0  0  0  0  0  0
    7.0091   45.9613  130.4815 O   0  0  0  0  0  0  0  0  0  0  0  0
    8.6428   47.4876  128.1314 H   0  0  0  0  0  0  0  0  0  0  0  0
   10.3236   43.9286  130.4374 C   0  0  0  0  0  0  0  0  0  0  0  0
   11.5196   43.9474  129.7761 C   0  0  0  0  0  0  0  0  0  0  0  0
   11.7477   44.9025  128.8118 C   0  0  0  0  0  0  0  0  0  0  0  0
   10.7850   45.8631  128.4848 C   0  0  0  0  0  0  0  0  0  0  0  0
    9.5750   45.8668  129.1331 C   0  0  0  0  0  0  0  0  0  0  0  0
    9.3924   44.8686  130.1111 C   0  0  0  0  0  0  0  0  0  0  0  0
   10.1010   42.9032  131.4614 C   0  0  0  0  0  0  0  0  0  0  0  0
    8.7342   42.3820  133.4713 C   0  0  0  0  0  0  0  0  0  0  0  0
    8.7102   42.9702  132.0581 C   0  0  0  0  0  0  0  0  0  0  0  0
    7.7364   42.1613  131.2508 C   0  0  0  0  0  0  0  0  0  0  0  0
    6.9072   49.1158  128.9521 C   0  0  0  0  0  0  0  0  0  0  0  0
    6.8541   49.9717  130.1860 C   0  0  0  0  0  0  0  0  0  0  0  0
    8.1796   50.4776  130.6591 C   0  0  0  0  0  0  0  0  0  0  0  0
    9.0551   49.3449  131.0961 C   0  0  0  0  0  0  0  0  0  0  0  0
   10.0555   49.0697  130.3997 O   0  0  0  0  0  0  0  0  0  0  0  0
    8.7188   48.6355  132.2709 N   0  0  0  0  0  0  0  0  0  0  0  0
    7.8457   48.9395  132.8012 H   0  0  0  0  0  0  0  0  0  0  0  0
    9.4470   47.5591  132.8041 C   0  0  0  0  0  0  0  0  0  0  0  0
    8.8854   46.7864  133.8387 C   0  0  0  0  0  0  0  0  0  0  0  0
    9.5354   45.7344  134.4263 C   0  0  0  0  0  0  0  0  0  0  0  0
   10.7960   45.3669  134.0315 C   0  0  0  0  0  0  0  0  0  0  0  0
   11.6574   44.0266  134.7598 Cl  0  0  0  0  0  0  0  0  0  0  0  0
   11.3800   46.0946  133.0254 C   0  0  0  0  0  0  0  0  0  0  0  0
   10.7063   47.1715  132.4294 C   0  0  0  0  0  0  0  0  0  0  0  0
 13 14  1  0  0  0
 14 15  1  0  0  0
 14 12  1  0  0  0
 12  6  1  0  0  0
  6  7  2  0  0  0
  7  8  1  0  0  0
  8  9  2  0  0  0
  9 10  1  0  0  0
 10  2  1  0  0  0
  2  3  1  0  0  0
  3  4  2  0  0  0
  3  1  1  0  0  0
  1 16  1  0  0  0
 16 17  1  0  0  0
 17 18  1  0  0  0
 18 19  1  0  0  0
 19 20  2  0  0  0
 19 21  1  0  0  0
 21 23  1  0  0  0
 23 24  2  0  0  0
 24 25  1  0  0  0
 25 26  2  0  0  0
 26 27  1  0  0  0
 26 28  1  0  0  0
 28 29  2  0  0  0
 10 11  2  0  0  0
 11  6  1  0  0  0
 29 23  1  0  0  0
  2  5  1  0  0  0
 21 22  1  0  0  0
M  END
> <minimizedAffinity>
-7.61670

> <CNNscore>
0.1765007228

> <CNNaffinity>
7.0330109596

> <CNN_VS>
1.2413314581

> <CNNaffinity_variance>
0.6381154060

$$$$
[H]c1c([H])c(C#N)c([H])c(C(=O)N2C([H])([H])C([H])([H])N(C(=O)[C@]3([H])C([H])([H])N(C(F)(F)F)C([H])([H])[C@]3([H])c3c([H])c([H])c(Cl)c(Cl)c3[H])[C@@]([H])(C([H])([H])[H])C2([H])[H])c1[H]


 36 39  0  0  0  0  0  0  0  0999 V2000
   12.2916   45.5250  132.7675 C   0  0  0  0  0  0  0  0  0  0  0  0
   11.4270   44.7490  133.7257 C   0  0  0  0  0  0  0  0  0  0  0  0
   10.6279   45.7610  134.5375 C   0  0  0  0  0  0  0  0  0  0  0  0
    9.8590   46.5664  133.5397 N   0  0  0  0  0  0  0  0  0  0  0  0
    9.0195   45.8053  132.6610 C   0  0  0  0  0  0  0  0  0  0  0  0
    9.0986   44.3075  132.9101 C   0  0  0  0  0  0  0  0  0  0  0  0
   10.4775   43.8765  133.0352 N   0  0  0  0  0  0  0  0  0  0  0  0
   10.9032   42.6596  132.5055 C   0  0  0  0  0  0  0  0  0  0  0  0
   12.1178   42.3588  132.6228 O   0  0  0  0  0  0  0  0  0  0  0  0
   10.0572   47.9477  133.5826 C   0  0  0  0  0  0  0  0  0  0  0  0
   10.9129   48.3290  134.5000 O   0  0  0  0  0  0  0  0  0  0  0  0
    9.5122   49.0335  132.8235 C   0  0  0  0  0  0  0  0  0  0  0  0
    9.9767   50.3446  133.0090 C   0  0  0  0  0  0  0  0  0  0  0  0
    9.4968   51.4281  132.3281 C   0  0  0  0  0  0  0  0  0  0  0  0
    8.4970   51.2561  131.3969 C   0  0  0  0  0  0  0  0  0  0  0  0
    7.9937   50.0012  131.1629 C   0  0  0  0  0  0  0  0  0  0  0  0
    8.5175   48.9158  131.8868 C   0  0  0  0  0  0  0  0  0  0  0  0
    6.9424   49.8036  130.1872 C   0  0  0  0  0  0  0  0  0  0  0  0
    6.0967   49.6257  129.4071 N   0  0  0  0  0  0  0  0  0  0  0  0
   10.0167   41.7185  131.8256 C   0  0  0  0  0  0  0  0  0  0  0  0
   10.7087   40.6667  130.9972 C   0  0  0  0  0  0  0  0  0  0  0  0
    9.8858   40.4332  129.8507 N   0  0  0  0  0  0  0  0  0  0  0  0
    8.6200   41.0898  130.0826 C   0  0  0  0  0  0  0  0  0  0  0  0
    9.0147   42.3050  130.9143 C   0  0  0  0  0  0  0  0  0  0  0  0
    9.3856   43.4459  130.0945 C   0  0  0  0  0  0  0  0  0  0  0  0
   10.6652   43.5019  129.5255 C   0  0  0  0  0  0  0  0  0  0  0  0
   11.0571   44.5734  128.7539 C   0  0  0  0  0  0  0  0  0  0  0  0
   10.2212   45.6246  128.5092 C   0  0  0  0  0  0  0  0  0  0  0  0
   10.7217   46.9917  127.5244 Cl  0  0  0  0  0  0  0  0  0  0  0  0
    8.9721   45.6050  129.0448 C   0  0  0  0  0  0  0  0  0  0  0  0
    7.8460   46.9336  128.7647 Cl  0  0  0  0  0  0  0  0  0  0  0  0
    8.5731   44.5253  129.8240 C   0  0  0  0  0  0  0  0  0  0  0  0
    9.7610   39.0616  129.4727 C   0  0  0  0  0  0  0  0  0  0  0  0
   10.5517   38.2080  130.1964 F   0  0  0  0  0  0  0  0  0  0  0  0
    9.9908   38.9721  128.1063 F   0  0  0  0  0  0  0  0  0  0  0  0
    8.4468   38.6801  129.6698 F   0  0  0  0  0  0  0  0  0  0  0  0
  1  2  1  0  0  0
  2  3  1  0  0  0
  3  4  1  0  0  0
  4  5  1  0  0  0
  5  6  1  0  0  0
  6  7  1  0  0  0
  7  8  1  0  0  0
  8  9  2  0  0  0
  8 20  1  0  0  0
 20 21  1  0  0  0
 21 22  1  0  0  0
 22 23  1  0  0  0
 23 24  1  0  0  0
 24 25  1  0  0  0
 25 26  2  0  0  0
 26 27  1  0  0  0
 27 28  2  0  0  0
 28 29  1  0  0  0
 28 30  1  0  0  0
 30 31  1  0  0  0
 30 32  2  0  0  0
 22 33  1  0  0  0
 33 34  1  0  0  0
 33 35  1  0  0  0
 33 36  1  0  0  0
  4 10  1  0  0  0
 10 11  2  0  0  0
 10 12  1  0  0  0
 12 13  2  0  0  0
 13 14  1  0  0  0
 14 15  2  0  0  0
 15 16  1  0  0  0
 16 17  2  0  0  0
 16 18  1  0  0  0
 18 19  3  0  0  0
  7  2  1  0  0  0
 24 20  1  0  0  0
 32 25  1  0  0  0
 17 12  1  0  0  0
M  END
> <minimizedAffinity>
14.67077

> <CNNscore>
0.5318039060

> <CNNaffinity>
8.1201992035

> <CNN_VS>
4.3183536530

> <CNNaffinity_variance>
0.2061616629

$$$$
[H]c1c([H])c(C#N)c([H])c(C(=O)N2C([H])([H])C([H])([H])N(C(=O)[C@]3([H])C([H])([H])N(C(F)(F)F)C([H])([H])[C@]3([H])c3c([H])c([H])c(Cl)c(Cl)c3[H])[C@@]([H])(C([H])([H])[H])C2([H])[H])c1[H]


 36 39  0  0  0  0  0  0  0  0999 V2000
    9.5983   45.1179  128.2970 C   0  0  0  0  0  0  0  0  0  0  0  0
   10.6111   44.8784  129.3856 C   0  0  0  0  0  0  0  0  0  0  0  0
   11.0571   46.2422  129.8984 C   0  0  0  0  0  0  0  0  0  0  0  0
    9.8130   46.9279  130.3650 N   0  0  0  0  0  0  0  0  0  0  0  0
    9.0551   46.2101  131.3481 C   0  0  0  0  0  0  0  0  0  0  0  0
    9.6670   44.8653  131.7073 C   0  0  0  0  0  0  0  0  0  0  0  0
   10.0490   44.1359  130.5135 N   0  0  0  0  0  0  0  0  0  0  0  0
    9.8819   42.7548  130.4284 C   0  0  0  0  0  0  0  0  0  0  0  0
   10.2061   42.1874  129.3549 O   0  0  0  0  0  0  0  0  0  0  0  0
    9.5424   48.1688  129.7853 C   0  0  0  0  0  0  0  0  0  0  0  0
   10.4314   48.5401  128.8959 O   0  0  0  0  0  0  0  0  0  0  0  0
    8.4858   49.1189  129.9678 C   0  0  0  0  0  0  0  0  0  0  0  0
    8.7263   50.3486  130.5997 C   0  0  0  0  0  0  0  0  0  0  0  0
    7.7658   51.2966  130.8159 C   0  0  0  0  0  0  0  0  0  0  0  0
    6.4743   51.0610  130.4004 C   0  0  0  0  0  0  0  0  0  0  0  0
    6.1654   49.8794  129.7750 C   0  0  0  0  0  0  0  0  0  0  0  0
    7.1855   48.9331  129.5738 C   0  0  0  0  0  0  0  0  0  0  0  0
    4.8123   49.6165  129.3322 C   0  0  0  0  0  0  0  0  0  0  0  0
    3.7184   49.4220  128.9841 N   0  0  0  0  0  0  0  0  0  0  0  0
    9.3537   41.9349  131.5159 C   0  0  0  0  0  0  0  0  0  0  0  0
    7.9627   42.2915  131.9732 C   0  0  0  0  0  0  0  0  0  0  0  0
    7.9246   42.0841  133.3880 N   0  0  0  0  0  0  0  0  0  0  0  0
    9.1281   41.3747  133.7563 C   0  0  0  0  0  0  0  0  0  0  0  0
   10.1521   41.9008  132.7569 C   0  0  0  0  0  0  0  0  0  0  0  0
   10.8037   43.1168  133.2129 C   0  0  0  0  0  0  0  0  0  0  0  0
   12.1417   43.3548  132.8702 C   0  0  0  0  0  0  0  0  0  0  0  0
   12.7965   44.4894  133.2953 C   0  0  0  0  0  0  0  0  0  0  0  0
   12.1754   45.4296  134.0660 C   0  0  0  0  0  0  0  0  0  0  0  0
   13.0114   46.8774  134.6082 Cl  0  0  0  0  0  0  0  0  0  0  0  0
   10.8775   45.2326  134.4182 C   0  0  0  0  0  0  0  0  0  0  0  0
   10.0203   46.4109  135.4124 Cl  0  0  0  0  0  0  0  0  0  0  0  0
   10.2133   44.0886  133.9910 C   0  0  0  0  0  0  0  0  0  0  0  0
    6.7273   41.4741  133.8717 C   0  0  0  0  0  0  0  0  0  0  0  0
    6.9402   40.4307  134.7338 F   0  0  0  0  0  0  0  0  0  0  0  0
    5.9590   41.1104  132.7738 F   0  0  0  0  0  0  0  0  0  0  0  0
    6.0008   42.4344  134.5512 F   0  0  0  0  0  0  0  0  0  0  0  0
  1  2  1  0  0  0
  2  3  1  0  0  0
  3  4  1  0  0  0
  4  5  1  0  0  0
  5  6  1  0  0  0
  6  7  1  0  0  0
  7  8  1  0  0  0
  8  9  2  0  0  0
  8 20  1  0  0  0
 20 21  1  0  0  0
 21 22  1  0  0  0
 22 23  1  0  0  0
 23 24  1  0  0  0
 24 25  1  0  0  0
 25 26  2  0  0  0
 26 27  1  0  0  0
 27 28  2  0  0  0
 28 29  1  0  0  0
 28 30  1  0  0  0
 30 31  1  0  0  0
 30 32  2  0  0  0
 22 33  1  0  0  0
 33 34  1  0  0  0
 33 35  1  0  0  0
 33 36  1  0  0  0
  4 10  1  0  0  0
 10 11  2  0  0  0
 10 12  1  0  0  0
 12 13  2  0  0  0
 13 14  1  0  0  0
 14 15  2  0  0  0
 15 16  1  0  0  0
 16 17  2  0  0  0
 16 18  1  0  0  0
 18 19  3  0  0  0
  7  2  1  0  0  0
 24 20  1  0  0  0
 32 25  1  0  0  0
 17 12  1  0  0  0
M  END
> <minimizedAffinity>
12.15872

> <CNNscore>
0.5177976489

> <CNNaffinity>
8.3237590790

> <CNN_VS>
4.3100228310

> <CNNaffinity_variance>
1.4135529995

$$$$
[H]c1c([H])c(C#N)c([H])c(C(=O)N2C([H])([H])C([H])([H])N(C(=O)[C@]3([H])C([H])([H])N(C(F)(F)F)C([H])([H])[C@]3([H])c3c([H])c([H])c(Cl)c(Cl)c3[H])[C@@]([H])(C([H])([H])[H])C2([H])[H])c1[H]


 36 39  0  0  0  0  0  0  0  0999 V2000
   10.1198   45.0708  128.4601 C   0  0  0  0  0  0  0  0  0  0  0  0
   10.9143   45.1004  129.7391 C   0  0  0  0  0  0  0  0  0  0  0  0
   11.0271   46.5577  130.1696 C   0  0  0  0  0  0  0  0  0  0  0  0
    9.6223   47.0487  130.3145 N   0  0  0  0  0  0  0  0  0  0  0  0
    8.8021   46.2892  131.2126 C   0  0  0  0  0  0  0  0  0  0  0  0
    9.5310   45.1058  131.8291 C   0  0  0  0  0  0  0  0  0  0  0  0
   10.2576   44.3625  130.8180 N   0  0  0  0  0  0  0  0  0  0  0  0
   10.3300   42.9713  130.8590 C   0  0  0  0  0  0  0  0  0  0  0  0
   10.9509   42.3862  129.9361 O   0  0  0  0  0  0  0  0  0  0  0  0
    9.2844   48.1727  129.5585 C   0  0  0  0  0  0  0  0  0  0  0  0
   10.2664   48.6228  128.8154 O   0  0  0  0  0  0  0  0  0  0  0  0
    8.0772   48.9337  129.4316 C   0  0  0  0  0  0  0  0  0  0  0  0
    6.8298   48.3541  129.7095 C   0  0  0  0  0  0  0  0  0  0  0  0
    5.6391   49.0162  129.6006 C   0  0  0  0  0  0  0  0  0  0  0  0
    5.6291   50.3325  129.1961 C   0  0  0  0  0  0  0  0  0  0  0  0
    6.8122   50.9645  128.9069 C   0  0  0  0  0  0  0  0  0  0  0  0
    8.0129   50.2442  129.0328 C   0  0  0  0  0  0  0  0  0  0  0  0
    6.8186   52.3480  128.4803 C   0  0  0  0  0  0  0  0  0  0  0  0
    6.8392   53.4639  128.1488 N   0  0  0  0  0  0  0  0  0  0  0  0
    9.7265   42.1602  131.9135 C   0  0  0  0  0  0  0  0  0  0  0  0
    8.2362   42.3173  132.0726 C   0  0  0  0  0  0  0  0  0  0  0  0
    7.9545   42.2138  133.4711 N   0  0  0  0  0  0  0  0  0  0  0  0
    9.1541   41.7412  134.1227 C   0  0  0  0  0  0  0  0  0  0  0  0
   10.2645   42.3511  133.2746 C   0  0  0  0  0  0  0  0  0  0  0  0
   10.6293   43.6884  133.7104 C   0  0  0  0  0  0  0  0  0  0  0  0
   11.9649   44.1040  133.6229 C   0  0  0  0  0  0  0  0  0  0  0  0
   12.3507   45.3591  134.0387 C   0  0  0  0  0  0  0  0  0  0  0  0
   11.4542   46.2513  134.5524 C   0  0  0  0  0  0  0  0  0  0  0  0
   11.9469   47.8530  135.0827 Cl  0  0  0  0  0  0  0  0  0  0  0  0
   10.1496   45.8832  134.6526 C   0  0  0  0  0  0  0  0  0  0  0  0
    8.9438   46.9914  135.3078 Cl  0  0  0  0  0  0  0  0  0  0  0  0
    9.7566   44.6172  134.2339 C   0  0  0  0  0  0  0  0  0  0  0  0
    6.7886   41.4540  133.7924 C   0  0  0  0  0  0  0  0  0  0  0  0
    7.0281   40.3817  134.6110 F   0  0  0  0  0  0  0  0  0  0  0  0
    6.1744   41.0893  132.6017 F   0  0  0  0  0  0  0  0  0  0  0  0
    5.9002   42.2873  134.4466 F   0  0  0  0  0  0  0  0  0  0  0  0
  1  2  1  0  0  0
  2  3  1  0  0  0
  3  4  1  0  0  0
  4  5  1  0  0  0
  5  6  1  0  0  0
  6  7  1  0  0  0
  7  8  1  0  0  0
  8  9  2  0  0  0
  8 20  1  0  0  0
 20 21  1  0  0  0
 21 22  1  0  0  0
 22 23  1  0  0  0
 23 24  1  0  0  0
 24 25  1  0  0  0
 25 26  2  0  0  0
 26 27  1  0  0  0
 27 28  2  0  0  0
 28 29  1  0  0  0
 28 30  1  0  0  0
 30 31  1  0  0  0
 30 32  2  0  0  0
 22 33  1  0  0  0
 33 34  1  0  0  0
 33 35  1  0  0  0
 33 36  1  0  0  0
  4 10  1  0  0  0
 10 11  2  0  0  0
 10 12  1  0  0  0
 12 13  2  0  0  0
 13 14  1  0  0  0
 14 15  2  0  0  0
 15 16  1  0  0  0
 16 17  2  0  0  0
 16 18  1  0  0  0
 18 19  3  0  0  0
  7  2  1  0  0  0
 24 20  1  0  0  0
 32 25  1  0  0  0
 17 12  1  0  0  0
M  END
> <minimizedAffinity>
9.11255

> <CNNscore>
0.4918024540

> <CNNaffinity>
8.0286998749

> <CNN_VS>
3.9485342503

> <CNNaffinity_variance>
0.6180565953

$$$$
[H]c1c([H])c(C#N)c([H])c(C(=O)N2C([H])([H])C([H])([H])N(C(=O)[C@]3([H])C([H])([H])N(C(F)(F)F)C([H])([H])[C@]3([H])c3c([H])c([H])c(Cl)c(Cl)c3[H])[C@@]([H])(C([H])([H])[H])C2([H])[H])c1[H]


 36 39  0  0  0  0  0  0  0  0999 V2000
   10.7492   45.6391  129.5312 C   0  0  0  0  0  0  0  0  0  0  0  0
    9.6143   45.5273  128.5477 C   0  0  0  0  0  0  0  0  0  0  0  0
    9.0524   44.1156  128.6616 C   0  0  0  0  0  0  0  0  0  0  0  0
    8.6380   43.9570  130.0895 N   0  0  0  0  0  0  0  0  0  0  0  0
    7.7099   44.9406  130.5662 C   0  0  0  0  0  0  0  0  0  0  0  0
    7.3456   45.9758  129.5139 C   0  0  0  0  0  0  0  0  0  0  0  0
    8.5319   46.4668  128.8396 N   0  0  0  0  0  0  0  0  0  0  0  0
    8.6526   47.8074  128.4780 C   0  0  0  0  0  0  0  0  0  0  0  0
    9.7186   48.1740  127.9223 O   0  0  0  0  0  0  0  0  0  0  0  0
    9.2066   42.8836  130.7776 C   0  0  0  0  0  0  0  0  0  0  0  0
   10.0411   42.1765  130.0545 O   0  0  0  0  0  0  0  0  0  0  0  0
    9.0609   42.3995  132.1181 C   0  0  0  0  0  0  0  0  0  0  0  0
   10.1504   42.3935  133.0024 C   0  0  0  0  0  0  0  0  0  0  0  0
   10.0865   41.9381  134.2895 C   0  0  0  0  0  0  0  0  0  0  0  0
    8.8953   41.4495  134.7780 C   0  0  0  0  0  0  0  0  0  0  0  0
    7.7872   41.4245  133.9693 C   0  0  0  0  0  0  0  0  0  0  0  0
    7.8994   41.9030  132.6521 C   0  0  0  0  0  0  0  0  0  0  0  0
    6.5275   40.9138  134.4678 C   0  0  0  0  0  0  0  0  0  0  0  0
    5.5110   40.4953  134.8513 N   0  0  0  0  0  0  0  0  0  0  0  0
    7.6102   48.8047  128.7080 C   0  0  0  0  0  0  0  0  0  0  0  0
    7.9548   50.2067  128.2759 C   0  0  0  0  0  0  0  0  0  0  0  0
    7.3535   51.0932  129.2239 N   0  0  0  0  0  0  0  0  0  0  0  0
    6.4535   50.3117  130.0402 C   0  0  0  0  0  0  0  0  0  0  0  0
    7.1418   48.9527  130.0998 C   0  0  0  0  0  0  0  0  0  0  0  0
    8.1048   48.8617  131.1841 C   0  0  0  0  0  0  0  0  0  0  0  0
    9.0957   49.8444  131.3133 C   0  0  0  0  0  0  0  0  0  0  0  0
   10.0337   49.7844  132.3201 C   0  0  0  0  0  0  0  0  0  0  0  0
   10.0409   48.7701  133.2338 C   0  0  0  0  0  0  0  0  0  0  0  0
   11.2379   48.6940  134.5186 Cl  0  0  0  0  0  0  0  0  0  0  0  0
    9.0947   47.7989  133.1399 C   0  0  0  0  0  0  0  0  0  0  0  0
    9.0516   46.4625  134.2905 Cl  0  0  0  0  0  0  0  0  0  0  0  0
    8.1464   47.8562  132.1250 C   0  0  0  0  0  0  0  0  0  0  0  0
    6.7509   52.2571  128.6567 C   0  0  0  0  0  0  0  0  0  0  0  0
    6.9016   53.3897  129.4129 F   0  0  0  0  0  0  0  0  0  0  0  0
    5.4192   51.9644  128.3944 F   0  0  0  0  0  0  0  0  0  0  0  0
    7.3439   52.4931  127.4303 F   0  0  0  0  0  0  0  0  0  0  0  0
  1  2  1  0  0  0
  2  3  1  0  0  0
  3  4  1  0  0  0
  4  5  1  0  0  0
  5  6  1  0  0  0
  6  7  1  0  0  0
  7  8  1  0  0  0
  8  9  2  0  0  0
  8 20  1  0  0  0
 20 21  1  0  0  0
 21 22  1  0  0  0
 22 23  1  0  0  0
 23 24  1  0  0  0
 24 25  1  0  0  0
 25 26  2  0  0  0
 26 27  1  0  0  0
 27 28  2  0  0  0
 28 29  1  0  0  0
 28 30  1  0  0  0
 30 31  1  0  0  0
 30 32  2  0  0  0
 22 33  1  0  0  0
 33 34  1  0  0  0
 33 35  1  0  0  0
 33 36  1  0  0  0
  4 10  1  0  0  0
 10 11  2  0  0  0
 10 12  1  0  0  0
 12 13  2  0  0  0
 13 14  1  0  0  0
 14 15  2  0  0  0
 15 16  1  0  0  0
 16 17  2  0  0  0
 16 18  1  0  0  0
 18 19  3  0  0  0
  7  2  1  0  0  0
 24 20  1  0  0  0
 32 25  1  0  0  0
 17 12  1  0  0  0
M  END
> <minimizedAffinity>
15.26896

> <CNNscore>
0.4439819753

> <CNNaffinity>
7.9014372826

> <CNN_VS>
3.5080957413

> <CNNaffinity_variance>
0.6912270784

$$$$
[H]c1c([H])c(C#N)c([H])c(C(=O)N2C([H])([H])C([H])([H])N(C(=O)[C@]3([H])C([H])([H])N(C(F)(F)F)C([H])([H])[C@]3([H])c3c([H])c([H])c(Cl)c(Cl)c3[H])[C@@]([H])(C([H])([H])[H])C2([H])[H])c1[H]


 36 39  0  0  0  0  0  0  0  0999 V2000
   11.5764   48.8745  131.0058 C   0  0  0  0  0  0  0  0  0  0  0  0
   11.1126   47.8547  132.0122 C   0  0  0  0  0  0  0  0  0  0  0  0
    9.8068   48.3663  132.6080 C   0  0  0  0  0  0  0  0  0  0  0  0
    8.8759   48.5473  131.4520 N   0  0  0  0  0  0  0  0  0  0  0  0
    8.6728   47.3789  130.6460 C   0  0  0  0  0  0  0  0  0  0  0  0
    9.4747   46.1786  131.1234 C   0  0  0  0  0  0  0  0  0  0  0  0
   10.8481   46.5521  131.4015 N   0  0  0  0  0  0  0  0  0  0  0  0
   11.9045   45.6977  131.0908 C   0  0  0  0  0  0  0  0  0  0  0  0
   13.0727   46.0939  131.3309 O   0  0  0  0  0  0  0  0  0  0  0  0
    8.3296   49.8229  131.2982 C   0  0  0  0  0  0  0  0  0  0  0  0
    8.7361   50.6826  132.2009 O   0  0  0  0  0  0  0  0  0  0  0  0
    7.4127   50.3814  130.3497 C   0  0  0  0  0  0  0  0  0  0  0  0
    6.1391   49.8217  130.1660 C   0  0  0  0  0  0  0  0  0  0  0  0
    5.2184   50.2954  129.2738 C   0  0  0  0  0  0  0  0  0  0  0  0
    5.5290   51.3866  128.4932 C   0  0  0  0  0  0  0  0  0  0  0  0
    6.7570   51.9856  128.6188 C   0  0  0  0  0  0  0  0  0  0  0  0
    7.6727   51.4642  129.5495 C   0  0  0  0  0  0  0  0  0  0  0  0
    7.0988   53.1336  127.8055 C   0  0  0  0  0  0  0  0  0  0  0  0
    7.3557   54.0565  127.1439 N   0  0  0  0  0  0  0  0  0  0  0  0
   11.7271   44.3713  130.5050 C   0  0  0  0  0  0  0  0  0  0  0  0
   10.8789   44.3261  129.2602 C   0  0  0  0  0  0  0  0  0  0  0  0
   10.1406   43.1017  129.3048 N   0  0  0  0  0  0  0  0  0  0  0  0
   10.6970   42.2967  130.3676 C   0  0  0  0  0  0  0  0  0  0  0  0
   11.1446   43.3397  131.3854 C   0  0  0  0  0  0  0  0  0  0  0  0
   10.0844   43.7118  132.3066 C   0  0  0  0  0  0  0  0  0  0  0  0
    8.8128   43.1396  132.1650 C   0  0  0  0  0  0  0  0  0  0  0  0
    7.7796   43.4777  133.0107 C   0  0  0  0  0  0  0  0  0  0  0  0
    7.9460   44.3812  134.0205 C   0  0  0  0  0  0  0  0  0  0  0  0
    6.6273   44.8124  135.0996 Cl  0  0  0  0  0  0  0  0  0  0  0  0
    9.1658   44.9568  134.1883 C   0  0  0  0  0  0  0  0  0  0  0  0
    9.4436   46.1311  135.4749 Cl  0  0  0  0  0  0  0  0  0  0  0  0
   10.2110   44.6179  133.3367 C   0  0  0  0  0  0  0  0  0  0  0  0
   10.0421   42.4161  128.0558 C   0  0  0  0  0  0  0  0  0  0  0  0
    9.9069   41.0576  128.1729 F   0  0  0  0  0  0  0  0  0  0  0  0
   11.1365   42.7783  127.2818 F   0  0  0  0  0  0  0  0  0  0  0  0
    8.9254   42.8903  127.3929 F   0  0  0  0  0  0  0  0  0  0  0  0
  1  2  1  0  0  0
  2  3  1  0  0  0
  3  4  1  0  0  0
  4  5  1  0  0  0
  5  6  1  0  0  0
  6  7  1  0  0  0
  7  8  1  0  0  0
  8  9  2  0  0  0
  8 20  1  0  0  0
 20 21  1  0  0  0
 21 22  1  0  0  0
 22 23  1  0  0  0
 23 24  1  0  0  0
 24 25  1  0  0  0
 25 26  2  0  0  0
 26 27  1  0  0  0
 27 28  2  0  0  0
 28 29  1  0  0  0
 28 30  1  0  0  0
 30 31  1  0  0  0
 30 32  2  0  0  0
 22 33  1  0  0  0
 33 34  1  0  0  0
 33 35  1  0  0  0
 33 36  1  0  0  0
  4 10  1  0  0  0
 10 11  2  0  0  0
 10 12  1  0  0  0
 12 13  2  0  0  0
 13 14  1  0  0  0
 14 15  2  0  0  0
 15 16  1  0  0  0
 16 17  2  0  0  0
 16 18  1  0  0  0
 18 19  3  0  0  0
  7  2  1  0  0  0
 24 20  1  0  0  0
 32 25  1  0  0  0
 17 12  1  0  0  0
M  END
> <minimizedAffinity>
12.11066

> <CNNscore>
0.4242818058

> <CNNaffinity>
7.7374825478

> <CNN_VS>
3.2828731537

> <CNNaffinity_variance>
0.9307447672

$$$$
[H]c1c([H])c(C#N)c([H])c(C(=O)N2C([H])([H])C([H])([H])N(C(=O)[C@]3([H])C([H])([H])N(C(F)(F)F)C([H])([H])[C@]3([H])c3c([H])c([H])c(Cl)c(Cl)c3[H])[C@@]([H])(C([H])([H])[H])C2([H])[H])c1[H]


 36 39  0  0  0  0  0  0  0  0999 V2000
    6.2825   45.1460  131.1906 C   0  0  0  0  0  0  0  0  0  0  0  0
    7.5132   44.6007  130.5153 C   0  0  0  0  0  0  0  0  0  0  0  0
    7.7197   45.3996  129.2345 C   0  0  0  0  0  0  0  0  0  0  0  0
    7.8420   46.8274  129.6612 N   0  0  0  0  0  0  0  0  0  0  0  0
    8.8717   47.0882  130.6244 C   0  0  0  0  0  0  0  0  0  0  0  0
    9.6289   45.8373  131.0410 C   0  0  0  0  0  0  0  0  0  0  0  0
    8.7124   44.7536  131.3388 N   0  0  0  0  0  0  0  0  0  0  0  0
    8.9555   43.8727  132.3912 C   0  0  0  0  0  0  0  0  0  0  0  0
    8.1068   42.9729  132.6142 O   0  0  0  0  0  0  0  0  0  0  0  0
    6.9414   47.7211  129.0786 C   0  0  0  0  0  0  0  0  0  0  0  0
    6.1046   47.1558  128.2422 O   0  0  0  0  0  0  0  0  0  0  0  0
    6.7480   49.1343  129.2122 C   0  0  0  0  0  0  0  0  0  0  0  0
    7.4910   50.0378  128.4371 C   0  0  0  0  0  0  0  0  0  0  0  0
    7.3661   51.3963  128.5188 C   0  0  0  0  0  0  0  0  0  0  0  0
    6.4654   51.9428  129.4056 C   0  0  0  0  0  0  0  0  0  0  0  0
    5.7043   51.1196  130.1966 C   0  0  0  0  0  0  0  0  0  0  0  0
    5.8665   49.7280  130.0787 C   0  0  0  0  0  0  0  0  0  0  0  0
    4.7529   51.6785  131.1340 C   0  0  0  0  0  0  0  0  0  0  0  0
    3.9752   52.1138  131.8830 N   0  0  0  0  0  0  0  0  0  0  0  0
   10.1395   43.9381  133.2443 C   0  0  0  0  0  0  0  0  0  0  0  0
   10.5389   45.3227  133.6852 C   0  0  0  0  0  0  0  0  0  0  0  0
   11.9685   45.3496  133.7255 N   0  0  0  0  0  0  0  0  0  0  0  0
   12.4332   43.9883  133.5912 C   0  0  0  0  0  0  0  0  0  0  0  0
   11.3778   43.3561  132.6908 C   0  0  0  0  0  0  0  0  0  0  0  0
   11.6719   43.5301  131.2786 C   0  0  0  0  0  0  0  0  0  0  0  0
   10.7111   43.1727  130.3228 C   0  0  0  0  0  0  0  0  0  0  0  0
   10.9591   43.3106  128.9751 C   0  0  0  0  0  0  0  0  0  0  0  0
   12.1461   43.7995  128.5108 C   0  0  0  0  0  0  0  0  0  0  0  0
   12.4621   43.9756  126.7907 Cl  0  0  0  0  0  0  0  0  0  0  0  0
   13.1020   44.1567  129.4086 C   0  0  0  0  0  0  0  0  0  0  0  0
   14.6561   44.7948  128.8708 Cl  0  0  0  0  0  0  0  0  0  0  0  0
   12.8553   44.0188  130.7697 C   0  0  0  0  0  0  0  0  0  0  0  0
   12.5230   46.0380  134.8472 C   0  0  0  0  0  0  0  0  0  0  0  0
   13.8913   45.9978  134.9074 F   0  0  0  0  0  0  0  0  0  0  0  0
   11.9239   45.5370  135.9953 F   0  0  0  0  0  0  0  0  0  0  0  0
   12.1486   47.3663  134.7635 F   0  0  0  0  0  0  0  0  0  0  0  0
  1  2  1  0  0  0
  2  3  1  0  0  0
  3  4  1  0  0  0
  4  5  1  0  0  0
  5  6  1  0  0  0
  6  7  1  0  0  0
  7  8  1  0  0  0
  8  9  2  0  0  0
  8 20  1  0  0  0
 20 21  1  0  0  0
 21 22  1  0  0  0
 22 23  1  0  0  0
 23 24  1  0  0  0
 24 25  1  0  0  0
 25 26  2  0  0  0
 26 27  1  0  0  0
 27 28  2  0  0  0
 28 29  1  0  0  0
 28 30  1  0  0  0
 30 31  1  0  0  0
 30 32  2  0  0  0
 22 33  1  0  0  0
 33 34  1  0  0  0
 33 35  1  0  0  0
 33 36  1  0  0  0
  4 10  1  0  0  0
 10 11  2  0  0  0
 10 12  1  0  0  0
 12 13  2  0  0  0
 13 14  1  0  0  0
 14 15  2  0  0  0
 15 16  1  0  0  0
 16 17  2  0  0  0
 16 18  1  0  0  0
 18 19  3  0  0  0
  7  2  1  0  0  0
 24 20  1  0  0  0
 32 25  1  0  0  0
 17 12  1  0  0  0
M  END
> <minimizedAffinity>
18.63531

> <CNNscore>
0.4215970039

> <CNNaffinity>
7.8271112442

> <CNN_VS>
3.2998867035

> <CNNaffinity_variance>
1.5914230347

$$$$
[H]c1c([H])c(C#N)c([H])c(C(=O)N2C([H])([H])C([H])([H])N(C(=O)[C@]3([H])C([H])([H])N(C(F)(F)F)C([H])([H])[C@]3([H])c3c([H])c([H])c(Cl)c(Cl)c3[H])[C@@]([H])(C([H])([H])[H])C2([H])[H])c1[H]


 36 39  0  0  0  0  0  0  0  0999 V2000
    6.4039   45.6666  129.5309 C   0  0  0  0  0  0  0  0  0  0  0  0
    7.8661   45.3077  129.4945 C   0  0  0  0  0  0  0  0  0  0  0  0
    8.5789   46.3890  128.6918 C   0  0  0  0  0  0  0  0  0  0  0  0
    8.2857   47.6762  129.3939 N   0  0  0  0  0  0  0  0  0  0  0  0
    8.6533   47.7107  130.7794 C   0  0  0  0  0  0  0  0  0  0  0  0
    9.2561   46.4035  131.2689 C   0  0  0  0  0  0  0  0  0  0  0  0
    8.4626   45.2720  130.8296 N   0  0  0  0  0  0  0  0  0  0  0  0
    8.2595   44.1692  131.6573 C   0  0  0  0  0  0  0  0  0  0  0  0
    7.5377   43.2347  131.2271 O   0  0  0  0  0  0  0  0  0  0  0  0
    7.6893   48.6743  128.6211 C   0  0  0  0  0  0  0  0  0  0  0  0
    7.4631   48.3157  127.3804 O   0  0  0  0  0  0  0  0  0  0  0  0
    7.2739   50.0139  128.9131 C   0  0  0  0  0  0  0  0  0  0  0  0
    6.6474   50.3229  130.1301 C   0  0  0  0  0  0  0  0  0  0  0  0
    6.2169   51.5745  130.4711 C   0  0  0  0  0  0  0  0  0  0  0  0
    6.3940   52.6167  129.5887 C   0  0  0  0  0  0  0  0  0  0  0  0
    6.9993   52.3885  128.3787 C   0  0  0  0  0  0  0  0  0  0  0  0
    7.4261   51.0849  128.0703 C   0  0  0  0  0  0  0  0  0  0  0  0
    7.1929   53.4737  127.4399 C   0  0  0  0  0  0  0  0  0  0  0  0
    7.3593   54.3556  126.6984 N   0  0  0  0  0  0  0  0  0  0  0  0
    8.8396   44.0413  132.9919 C   0  0  0  0  0  0  0  0  0  0  0  0
    9.0043   45.3344  133.7483 C   0  0  0  0  0  0  0  0  0  0  0  0
   10.2107   45.2202  134.5084 N   0  0  0  0  0  0  0  0  0  0  0  0
   10.6305   43.8389  134.4532 C   0  0  0  0  0  0  0  0  0  0  0  0
   10.1652   43.3971  133.0703 C   0  0  0  0  0  0  0  0  0  0  0  0
   11.1482   43.6724  132.0362 C   0  0  0  0  0  0  0  0  0  0  0  0
   12.4666   43.9793  132.3994 C   0  0  0  0  0  0  0  0  0  0  0  0
   13.4225   44.2590  131.4480 C   0  0  0  0  0  0  0  0  0  0  0  0
   13.1309   44.2499  130.1144 C   0  0  0  0  0  0  0  0  0  0  0  0
   14.3510   44.6068  128.9006 Cl  0  0  0  0  0  0  0  0  0  0  0  0
   11.8624   43.9565  129.7245 C   0  0  0  0  0  0  0  0  0  0  0  0
   11.4237   43.9287  128.0162 Cl  0  0  0  0  0  0  0  0  0  0  0  0
   10.8950   43.6737  130.6819 C   0  0  0  0  0  0  0  0  0  0  0  0
   10.1348   45.7452  135.8344 C   0  0  0  0  0  0  0  0  0  0  0  0
   10.5132   44.8594  136.8089 F   0  0  0  0  0  0  0  0  0  0  0  0
    8.8496   46.2339  136.0279 F   0  0  0  0  0  0  0  0  0  0  0  0
   10.9797   46.8367  135.9128 F   0  0  0  0  0  0  0  0  0  0  0  0
  1  2  1  0  0  0
  2  3  1  0  0  0
  3  4  1  0  0  0
  4  5  1  0  0  0
  5  6  1  0  0  0
  6  7  1  0  0  0
  7  8  1  0  0  0
  8  9  2  0  0  0
  8 20  1  0  0  0
 20 21  1  0  0  0
 21 22  1  0  0  0
 22 23  1  0  0  0
 23 24  1  0  0  0
 24 25  1  0  0  0
 25 26  2  0  0  0
 26 27  1  0  0  0
 27 28  2  0  0  0
 28 29  1  0  0  0
 28 30  1  0  0  0
 30 31  1  0  0  0
 30 32  2  0  0  0
 22 33  1  0  0  0
 33 34  1  0  0  0
 33 35  1  0  0  0
 33 36  1  0  0  0
  4 10  1  0  0  0
 10 11  2  0  0  0
 10 12  1  0  0  0
 12 13  2  0  0  0
 13 14  1  0  0  0
 14 15  2  0  0  0
 15 16  1  0  0  0
 16 17  2  0  0  0
 16 18  1  0  0  0
 18 19  3  0  0  0
  7  2  1  0  0  0
 24 20  1  0  0  0
 32 25  1  0  0  0
 17 12  1  0  0  0
M  END
> <minimizedAffinity>
7.51861

> <CNNscore>
0.4032670259

> <CNNaffinity>
7.8225235939

> <CNN_VS>
3.1545658112

> <CNNaffinity_variance>
0.8416054845

$$$$
[H]c1c([H])c(C#N)c([H])c(C(=O)N2C([H])([H])C([H])([H])N(C(=O)[C@]3([H])C([H])([H])N(C(F)(F)F)C([H])([H])[C@]3([H])c3c([H])c([H])c(Cl)c(Cl)c3[H])[C@@]([H])(C([H])([H])[H])C2([H])[H])c1[H]


 36 39  0  0  0  0  0  0  0  0999 V2000
    6.2728   45.1907  131.7384 C   0  0  0  0  0  0  0  0  0  0  0  0
    7.1878   44.4226  130.8215 C   0  0  0  0  0  0  0  0  0  0  0  0
    7.3932   45.2695  129.5716 C   0  0  0  0  0  0  0  0  0  0  0  0
    7.9604   46.5679  130.0491 N   0  0  0  0  0  0  0  0  0  0  0  0
    9.1627   46.4585  130.8229 C   0  0  0  0  0  0  0  0  0  0  0  0
    9.6133   45.0204  131.0239 C   0  0  0  0  0  0  0  0  0  0  0  0
    8.4998   44.1806  131.4212 N   0  0  0  0  0  0  0  0  0  0  0  0
    8.6629   43.1641  132.3606 C   0  0  0  0  0  0  0  0  0  0  0  0
    7.6511   42.4916  132.6826 O   0  0  0  0  0  0  0  0  0  0  0  0
    7.2512   47.7159  129.6908 C   0  0  0  0  0  0  0  0  0  0  0  0
    6.1709   47.4705  128.9895 O   0  0  0  0  0  0  0  0  0  0  0  0
    7.4677   49.1105  129.9369 C   0  0  0  0  0  0  0  0  0  0  0  0
    6.9395   50.0830  129.0742 C   0  0  0  0  0  0  0  0  0  0  0  0
    7.1141   51.4281  129.2418 C   0  0  0  0  0  0  0  0  0  0  0  0
    7.8478   51.8890  130.3121 C   0  0  0  0  0  0  0  0  0  0  0  0
    8.3951   50.9949  131.1974 C   0  0  0  0  0  0  0  0  0  0  0  0
    8.1896   49.6203  130.9855 C   0  0  0  0  0  0  0  0  0  0  0  0
    9.1691   51.4634  132.3278 C   0  0  0  0  0  0  0  0  0  0  0  0
    9.7942   51.8572  133.2276 N   0  0  0  0  0  0  0  0  0  0  0  0
    9.9417   42.8387  132.9872 C   0  0  0  0  0  0  0  0  0  0  0  0
   10.6016   43.9727  133.7288 C   0  0  0  0  0  0  0  0  0  0  0  0
   12.0117   43.8304  133.5358 N   0  0  0  0  0  0  0  0  0  0  0  0
   12.2413   42.5316  132.9462 C   0  0  0  0  0  0  0  0  0  0  0  0
   10.9955   42.3206  132.0931 C   0  0  0  0  0  0  0  0  0  0  0  0
   11.1308   42.8810  130.7594 C   0  0  0  0  0  0  0  0  0  0  0  0
   10.1595   42.5993  129.7890 C   0  0  0  0  0  0  0  0  0  0  0  0
   10.2609   43.1015  128.5106 C   0  0  0  0  0  0  0  0  0  0  0  0
   11.3069   43.8928  128.1319 C   0  0  0  0  0  0  0  0  0  0  0  0
   11.4358   44.5336  126.5004 Cl  0  0  0  0  0  0  0  0  0  0  0  0
   12.2682   44.1875  129.0464 C   0  0  0  0  0  0  0  0  0  0  0  0
   13.6441   45.2048  128.6180 Cl  0  0  0  0  0  0  0  0  0  0  0  0
   12.1692   43.6824  130.3378 C   0  0  0  0  0  0  0  0  0  0  0  0
   12.8034   44.0821  134.6976 C   0  0  0  0  0  0  0  0  0  0  0  0
   14.0200   43.4517  134.6924 F   0  0  0  0  0  0  0  0  0  0  0  0
   12.0409   43.7606  135.8125 F   0  0  0  0  0  0  0  0  0  0  0  0
   13.0395   45.4425  134.7694 F   0  0  0  0  0  0  0  0  0  0  0  0
  1  2  1  0  0  0
  2  3  1  0  0  0
  3  4  1  0  0  0
  4  5  1  0  0  0
  5  6  1  0  0  0
  6  7  1  0  0  0
  7  8  1  0  0  0
  8  9  2  0  0  0
  8 20  1  0  0  0
 20 21  1  0  0  0
 21 22  1  0  0  0
 22 23  1  0  0  0
 23 24  1  0  0  0
 24 25  1  0  0  0
 25 26  2  0  0  0
 26 27  1  0  0  0
 27 28  2  0  0  0
 28 29  1  0  0  0
 28 30  1  0  0  0
 30 31  1  0  0  0
 30 32  2  0  0  0
 22 33  1  0  0  0
 33 34  1  0  0  0
 33 35  1  0  0  0
 33 36  1  0  0  0
  4 10  1  0  0  0
 10 11  2  0  0  0
 10 12  1  0  0  0
 12 13  2  0  0  0
 13 14  1  0  0  0
 14 15  2  0  0  0
 15 16  1  0  0  0
 16 17  2  0  0  0
 16 18  1  0  0  0
 18 19  3  0  0  0
  7  2  1  0  0  0
 24 20  1  0  0  0
 32 25  1  0  0  0
 17 12  1  0  0  0
M  END
> <minimizedAffinity>
14.11111

> <CNNscore>
0.4026875198

> <CNNaffinity>
7.9643836021

> <CNN_VS>
3.2071578503

> <CNNaffinity_variance>
2.5258431435

$$$$
[H]c1c([H])c(C#N)c([H])c(C(=O)N2C([H])([H])C([H])([H])N(C(=O)[C@]3([H])C([H])([H])N(C(F)(F)F)C([H])([H])[C@]3([H])c3c([H])c([H])c(Cl)c(Cl)c3[H])[C@@]([H])(C([H])([H])[H])C2([H])[H])c1[H]


 36 39  0  0  0  0  0  0  0  0999 V2000
    9.0055   43.3223  130.3824 C   0  0  0  0  0  0  0  0  0  0  0  0
    9.0051   44.2687  131.5539 C   0  0  0  0  0  0  0  0  0  0  0  0
   10.4245   44.3071  132.1067 C   0  0  0  0  0  0  0  0  0  0  0  0
   11.2916   44.7459  130.9704 N   0  0  0  0  0  0  0  0  0  0  0  0
   10.9198   45.9929  130.3680 C   0  0  0  0  0  0  0  0  0  0  0  0
    9.6863   46.6165  131.0014 C   0  0  0  0  0  0  0  0  0  0  0  0
    8.6361   45.6304  131.1677 N   0  0  0  0  0  0  0  0  0  0  0  0
    7.2981   45.9603  130.9595 C   0  0  0  0  0  0  0  0  0  0  0  0
    6.4399   45.0517  131.0919 O   0  0  0  0  0  0  0  0  0  0  0  0
   12.3430   43.8907  130.6353 C   0  0  0  0  0  0  0  0  0  0  0  0
   12.3990   42.8095  131.3749 O   0  0  0  0  0  0  0  0  0  0  0  0
   13.3744   43.9580  129.6433 C   0  0  0  0  0  0  0  0  0  0  0  0
   14.5616   44.6650  129.8877 C   0  0  0  0  0  0  0  0  0  0  0  0
   15.5817   44.7793  128.9853 C   0  0  0  0  0  0  0  0  0  0  0  0
   15.4683   44.1755  127.7529 C   0  0  0  0  0  0  0  0  0  0  0  0
   14.3344   43.4671  127.4440 C   0  0  0  0  0  0  0  0  0  0  0  0
   13.3105   43.3763  128.4031 C   0  0  0  0  0  0  0  0  0  0  0  0
   14.1998   42.8266  126.1525 C   0  0  0  0  0  0  0  0  0  0  0  0
   14.1109   42.3106  125.1127 N   0  0  0  0  0  0  0  0  0  0  0  0
    6.8416   47.3002  130.5986 C   0  0  0  0  0  0  0  0  0  0  0  0
    7.4787   47.8862  129.3649 C   0  0  0  0  0  0  0  0  0  0  0  0
    7.6251   49.2896  129.5997 N   0  0  0  0  0  0  0  0  0  0  0  0
    6.8724   49.6124  130.7899 C   0  0  0  0  0  0  0  0  0  0  0  0
    7.0020   48.3455  131.6281 C   0  0  0  0  0  0  0  0  0  0  0  0
    8.1947   48.3447  132.4579 C   0  0  0  0  0  0  0  0  0  0  0  0
    9.1918   49.3046  132.2367 C   0  0  0  0  0  0  0  0  0  0  0  0
   10.3419   49.3268  132.9940 C   0  0  0  0  0  0  0  0  0  0  0  0
   10.5623   48.4194  133.9899 C   0  0  0  0  0  0  0  0  0  0  0  0
   12.0302   48.4482  134.9562 Cl  0  0  0  0  0  0  0  0  0  0  0  0
    9.6172   47.4734  134.2333 C   0  0  0  0  0  0  0  0  0  0  0  0
    9.8438   46.2737  135.5064 Cl  0  0  0  0  0  0  0  0  0  0  0  0
    8.4551   47.4479  133.4709 C   0  0  0  0  0  0  0  0  0  0  0  0
    7.3136   50.1197  128.4801 C   0  0  0  0  0  0  0  0  0  0  0  0
    8.1005   51.2365  128.3761 F   0  0  0  0  0  0  0  0  0  0  0  0
    5.9602   50.4244  128.5371 F   0  0  0  0  0  0  0  0  0  0  0  0
    7.4942   49.3742  127.3298 F   0  0  0  0  0  0  0  0  0  0  0  0
  1  2  1  0  0  0
  2  3  1  0  0  0
  3  4  1  0  0  0
  4  5  1  0  0  0
  5  6  1  0  0  0
  6  7  1  0  0  0
  7  8  1  0  0  0
  8  9  2  0  0  0
  8 20  1  0  0  0
 20 21  1  0  0  0
 21 22  1  0  0  0
 22 23  1  0  0  0
 23 24  1  0  0  0
 24 25  1  0  0  0
 25 26  2  0  0  0
 26 27  1  0  0  0
 27 28  2  0  0  0
 28 29  1  0  0  0
 28 30  1  0  0  0
 30 31  1  0  0  0
 30 32  2  0  0  0
 22 33  1  0  0  0
 33 34  1  0  0  0
 33 35  1  0  0  0
 33 36  1  0  0  0
  4 10  1  0  0  0
 10 11  2  0  0  0
 10 12  1  0  0  0
 12 13  2  0  0  0
 13 14  1  0  0  0
 14 15  2  0  0  0
 15 16  1  0  0  0
 16 17  2  0  0  0
 16 18  1  0  0  0
 18 19  3  0  0  0
  7  2  1  0  0  0
 24 20  1  0  0  0
 32 25  1  0  0  0
 17 12  1  0  0  0
M  END
> <minimizedAffinity>
23.61958

> <CNNscore>
0.4015276730

> <CNNaffinity>
7.8643541336

> <CNN_VS>
3.1577558517

> <CNNaffinity_variance>
1.0784299374

$$$$
[H]N=C(N([H])[H])N([H])C([H])([H])C([H])([H])C([H])([H])C([H])([H])[C@@]([H])(C(=O)N([H])[C@]([H])(C(=O)O[H])C([H])([H])C(=O)O[H])N([H])C(=O)[C@@]([H])(N([H])C(=O)[C@@]([H])(N([H])C(=O)[C@@]([H])(N([H])C(=O)C([H])([H])[H])C([H])([H])O[H])C([H])(C([H])([H])[H])C([H])([H])[H])C([H])(C([H])([H])[H])C([H])([H])[H]


 56 55  0  0  0  0  0  0  0  0999 V2000
    9.2657   46.3922  133.2302 C   0  0  0  0  0  0  0  0  0  0  0  0
    8.4152   46.5814  134.1922 O   0  0  0  0  0  0  0  0  0  0  0  0
    9.3689   47.4337  132.3334 N   0  0  0  0  0  0  0  0  0  0  0  0
    9.9419   47.2430  131.4527 H   0  0  0  0  0  0  0  0  0  0  0  0
    8.7574   48.7346  132.4075 C   0  0  0  0  0  0  0  0  0  0  0  0
    8.3024   49.3221  131.1287 C   0  0  0  0  0  0  0  0  0  0  0  0
    8.5111   50.5273  130.8962 O   0  0  0  0  0  0  0  0  0  0  0  0
    7.6473   48.5261  130.1767 N   0  0  0  0  0  0  0  0  0  0  0  0
    7.4577   47.5039  130.3808 H   0  0  0  0  0  0  0  0  0  0  0  0
    7.1691   49.0231  128.8868 C   0  0  0  0  0  0  0  0  0  0  0  0
    6.4133   50.2699  129.1750 C   0  0  0  0  0  0  0  0  0  0  0  0
    6.7751   51.5101  128.6898 O   0  0  0  0  0  0  0  0  0  0  0  0
    5.3737   50.2432  129.8964 O   0  0  0  0  0  0  0  0  0  0  0  0
    6.0468   52.1486  128.3528 H   0  0  0  0  0  0  0  0  0  0  0  0
    6.1861   47.9650  128.3607 C   0  0  0  0  0  0  0  0  0  0  0  0
    5.6965   47.0572  129.3786 C   0  0  0  0  0  0  0  0  0  0  0  0
    6.4806   46.2003  130.1047 O   0  0  0  0  0  0  0  0  0  0  0  0
    4.4499   47.0174  129.6463 O   0  0  0  0  0  0  0  0  0  0  0  0
    6.2313   45.1849  130.0691 H   0  0  0  0  0  0  0  0  0  0  0  0
    9.8645   49.6090  132.9649 C   0  0  0  0  0  0  0  0  0  0  0  0
   10.3931   49.3830  134.3161 C   0  0  0  0  0  0  0  0  0  0  0  0
   11.6049   48.4227  134.0580 C   0  0  0  0  0  0  0  0  0  0  0  0
   12.2427   47.9299  135.3163 C   0  0  0  0  0  0  0  0  0  0  0  0
   13.2484   48.9428  135.6782 N   0  0  0  0  0  0  0  0  0  0  0  0
   13.3758   49.7273  135.0208 H   0  0  0  0  0  0  0  0  0  0  0  0
   14.0026   48.8836  136.8548 C   0  0  0  0  0  0  0  0  0  0  0  0
   15.1158   48.0402  136.9996 N   0  0  0  0  0  0  0  0  0  0  0  0
   13.6537   49.6484  137.8514 N   0  0  0  0  0  0  0  0  0  0  0  0
   15.5908   47.9859  137.9567 H   0  0  0  0  0  0  0  0  0  0  0  0
   15.5194   47.4713  136.2647 H   0  0  0  0  0  0  0  0  0  0  0  0
   14.1204   49.6865  138.7403 H   0  0  0  0  0  0  0  0  0  0  0  0
    9.9999   45.1503  133.2173 C   0  0  0  0  0  0  0  0  0  0  0  0
   11.8033   43.9275  131.7593 C   0  0  0  0  0  0  0  0  0  0  0  0
   12.5082   43.3399  132.6553 O   0  0  0  0  0  0  0  0  0  0  0  0
   10.7214   44.6891  132.0961 N   0  0  0  0  0  0  0  0  0  0  0  0
   10.2817   45.1909  131.1602 H   0  0  0  0  0  0  0  0  0  0  0  0
   12.2646   43.7202  130.3444 C   0  0  0  0  0  0  0  0  0  0  0  0
   10.1817   43.4520  128.5797 C   0  0  0  0  0  0  0  0  0  0  0  0
   10.1963   42.7446  127.5236 O   0  0  0  0  0  0  0  0  0  0  0  0
   11.1931   43.5863  129.4428 N   0  0  0  0  0  0  0  0  0  0  0  0
   11.9057   42.6443  128.7995 H   0  0  0  0  0  0  0  0  0  0  0  0
    8.8204   44.1321  128.6992 C   0  0  0  0  0  0  0  0  0  0  0  0
    7.7445   42.7167  132.1177 C   0  0  0  0  0  0  0  0  0  0  0  0
    8.2050   42.8262  130.7160 C   0  0  0  0  0  0  0  0  0  0  0  0
    8.4590   41.7703  130.0951 O   0  0  0  0  0  0  0  0  0  0  0  0
    8.3635   44.1065  130.0540 N   0  0  0  0  0  0  0  0  0  0  0  0
    8.1210   44.9442  130.6334 H   0  0  0  0  0  0  0  0  0  0  0  0
    9.1527   45.5947  128.3698 C   0  0  0  0  0  0  0  0  0  0  0  0
    9.3914   46.2457  129.5631 O   0  0  0  0  0  0  0  0  0  0  0  0
    9.1977   47.1963  129.6076 H   0  0  0  0  0  0  0  0  0  0  0  0
   13.4147   44.4983  129.8412 C   0  0  0  0  0  0  0  0  0  0  0  0
   13.9799   45.4888  130.8506 C   0  0  0  0  0  0  0  0  0  0  0  0
   14.5471   43.6105  129.3511 C   0  0  0  0  0  0  0  0  0  0  0  0
   10.5659   44.6974  134.5372 C   0  0  0  0  0  0  0  0  0  0  0  0
   10.1345   45.5066  135.7109 C   0  0  0  0  0  0  0  0  0  0  0  0
   10.6196   43.2282  134.7012 C   0  0  0  0  0  0  0  0  0  0  0  0
 43 44  1  0  0  0
 44 45  2  0  0  0
 44 46  1  0  0  0
 46 42  1  0  0  0
 42 48  1  0  0  0
 48 49  1  0  0  0
 42 38  1  0  0  0
 38 39  2  0  0  0
 38 40  1  0  0  0
 40 37  1  0  0  0
 37 51  1  0  0  0
 51 52  1  0  0  0
 51 53  1  0  0  0
 37 33  1  0  0  0
 33 34  2  0  0  0
 33 35  1  0  0  0
 35 32  1  0  0  0
 32 54  1  0  0  0
 54 55  1  0  0  0
 54 56  1  0  0  0
 32  1  1  0  0  0
  1  2  2  0  0  0
  1  3  1  0  0  0
  3  5  1  0  0  0
  5 20  1  0  0  0
 20 21  1  0  0  0
 21 22  1  0  0  0
 22 23  1  0  0  0
 23 24  1  0  0  0
 24 26  1  0  0  0
 26 27  1  0  0  0
 26 28  2  0  0  0
  5  6  1  0  0  0
  6  7  2  0  0  0
  6  8  1  0  0  0
  8 10  1  0  0  0
 10 15  1  0  0  0
 15 16  1  0  0  0
 16 17  1  0  0  0
 16 18  2  0  0  0
 10 11  1  0  0  0
 11 12  1  0  0  0
 11 13  2  0  0  0
 46 47  1  0  0  0
 49 50  1  0  0  0
 40 41  1  0  0  0
 35 36  1  0  0  0
  3  4  1  0  0  0
 24 25  1  0  0  0
 27 29  1  0  0  0
 27 30  1  0  0  0
 28 31  1  0  0  0
  8  9  1  0  0  0
 17 19  1  0  0  0
 12 14  1  0  0  0
M  END
> <minimizedAffinity>
4.02094

> <CNNscore>
0.4678801596

> <CNNaffinity>
7.5855560303

> <CNN_VS>
3.5491311550

> <CNNaffinity_variance>
0.4418671131

$$$$
[H]N=C(N([H])[H])N([H])C([H])([H])C([H])([H])C([H])([H])C([H])([H])[C@@]([H])(C(=O)N([H])[C@]([H])(C(=O)O[H])C([H])([H])C(=O)O[H])N([H])C(=O)[C@@]([H])(N([H])C(=O)[C@@]([H])(N([H])C(=O)[C@@]([H])(N([H])C(=O)C([H])([H])[H])C([H])([H])O[H])C([H])(C([H])([H])[H])C([H])([H])[H])C([H])(C([H])([H])[H])C([H])([H])[H]


 56 55  0  0  0  0  0  0  0  0999 V2000
    8.7107   49.4968  130.4012 C   0  0  0  0  0  0  0  0  0  0  0  0
    9.3916   49.0217  129.4036 O   0  0  0  0  0  0  0  0  0  0  0  0
    7.7657   50.4409  130.0618 N   0  0  0  0  0  0  0  0  0  0  0  0
    7.3022   50.9575  130.8734 H   0  0  0  0  0  0  0  0  0  0  0  0
    7.3588   50.8585  128.7458 C   0  0  0  0  0  0  0  0  0  0  0  0
    7.1162   52.3055  128.5599 C   0  0  0  0  0  0  0  0  0  0  0  0
    6.7528   52.9982  129.5285 O   0  0  0  0  0  0  0  0  0  0  0  0
    7.3025   52.8993  127.3022 N   0  0  0  0  0  0  0  0  0  0  0  0
    7.5983   52.3068  126.4751 H   0  0  0  0  0  0  0  0  0  0  0  0
    7.0903   54.3208  127.0310 C   0  0  0  0  0  0  0  0  0  0  0  0
    6.1458   54.3899  125.8856 C   0  0  0  0  0  0  0  0  0  0  0  0
    6.4429   53.9187  124.6230 O   0  0  0  0  0  0  0  0  0  0  0  0
    4.9945   54.8962  126.0271 O   0  0  0  0  0  0  0  0  0  0  0  0
    5.7240   53.4132  124.0945 H   0  0  0  0  0  0  0  0  0  0  0  0
    8.4506   54.8755  126.5783 C   0  0  0  0  0  0  0  0  0  0  0  0
    8.7524   54.6303  125.1823 C   0  0  0  0  0  0  0  0  0  0  0  0
    9.0700   53.4069  124.6542 O   0  0  0  0  0  0  0  0  0  0  0  0
    8.7372   55.5975  124.3508 O   0  0  0  0  0  0  0  0  0  0  0  0
    9.9791   53.3338  124.1419 H   0  0  0  0  0  0  0  0  0  0  0  0
    6.0468   50.1260  128.5378 C   0  0  0  0  0  0  0  0  0  0  0  0
    5.3540   49.4894  129.6651 C   0  0  0  0  0  0  0  0  0  0  0  0
    4.9946   48.0737  129.0962 C   0  0  0  0  0  0  0  0  0  0  0  0
    5.8337   46.9789  129.6711 C   0  0  0  0  0  0  0  0  0  0  0  0
    7.1725   47.1500  129.0824 N   0  0  0  0  0  0  0  0  0  0  0  0
    7.4008   48.0843  128.7098 H   0  0  0  0  0  0  0  0  0  0  0  0
    8.1192   46.1217  129.0268 C   0  0  0  0  0  0  0  0  0  0  0  0
    9.4445   46.3335  128.6142 N   0  0  0  0  0  0  0  0  0  0  0  0
    7.7494   44.9217  129.3776 N   0  0  0  0  0  0  0  0  0  0  0  0
   10.0876   45.4842  128.5152 H   0  0  0  0  0  0  0  0  0  0  0  0
    9.8551   47.2352  128.4020 H   0  0  0  0  0  0  0  0  0  0  0  0
    8.3430   44.1111  129.3752 H   0  0  0  0  0  0  0  0  0  0  0  0
    9.0023   48.9844  131.7181 C   0  0  0  0  0  0  0  0  0  0  0  0
    9.2641   46.4170  132.1792 C   0  0  0  0  0  0  0  0  0  0  0  0
    8.0410   46.0333  132.2199 O   0  0  0  0  0  0  0  0  0  0  0  0
    9.5897   47.7220  131.9451 N   0  0  0  0  0  0  0  0  0  0  0  0
   10.7262   47.8698  132.0315 H   0  0  0  0  0  0  0  0  0  0  0  0
   10.2817   45.3370  132.4157 C   0  0  0  0  0  0  0  0  0  0  0  0
   11.2454   44.2732  130.0782 C   0  0  0  0  0  0  0  0  0  0  0  0
   12.2045   44.7479  129.3921 O   0  0  0  0  0  0  0  0  0  0  0  0
   10.7719   44.7871  131.2174 N   0  0  0  0  0  0  0  0  0  0  0  0
   11.7665   45.6916  131.2570 H   0  0  0  0  0  0  0  0  0  0  0  0
   10.7147   43.0215  129.3844 C   0  0  0  0  0  0  0  0  0  0  0  0
    7.7389   41.9576  131.5889 C   0  0  0  0  0  0  0  0  0  0  0  0
    9.1079   42.2424  131.1056 C   0  0  0  0  0  0  0  0  0  0  0  0
   10.0646   42.0177  131.8797 O   0  0  0  0  0  0  0  0  0  0  0  0
    9.3640   42.7641  129.7771 N   0  0  0  0  0  0  0  0  0  0  0  0
    8.5150   42.9155  129.1833 H   0  0  0  0  0  0  0  0  0  0  0  0
   10.6745   43.4532  127.9112 C   0  0  0  0  0  0  0  0  0  0  0  0
    9.3839   43.2677  127.4587 O   0  0  0  0  0  0  0  0  0  0  0  0
    9.2575   43.0745  126.5154 H   0  0  0  0  0  0  0  0  0  0  0  0
   11.2884   45.5179  133.4812 C   0  0  0  0  0  0  0  0  0  0  0  0
   10.6927   45.8264  134.8485 C   0  0  0  0  0  0  0  0  0  0  0  0
   12.2122   44.3185  133.6174 C   0  0  0  0  0  0  0  0  0  0  0  0
    9.3249   50.0077  132.7746 C   0  0  0  0  0  0  0  0  0  0  0  0
   10.3789   49.5935  133.7422 C   0  0  0  0  0  0  0  0  0  0  0  0
    9.3610   51.4007  132.2779 C   0  0  0  0  0  0  0  0  0  0  0  0
 43 44  1  0  0  0
 44 45  2  0  0  0
 44 46  1  0  0  0
 46 42  1  0  0  0
 42 48  1  0  0  0
 48 49  1  0  0  0
 42 38  1  0  0  0
 38 39  2  0  0  0
 38 40  1  0  0  0
 40 37  1  0  0  0
 37 51  1  0  0  0
 51 52  1  0  0  0
 51 53  1  0  0  0
 37 33  1  0  0  0
 33 34  2  0  0  0
 33 35  1  0  0  0
 35 32  1  0  0  0
 32 54  1  0  0  0
 54 55  1  0  0  0
 54 56  1  0  0  0
 32  1  1  0  0  0
  1  2  2  0  0  0
  1  3  1  0  0  0
  3  5  1  0  0  0
  5 20  1  0  0  0
 20 21  1  0  0  0
 21 22  1  0  0  0
 22 23  1  0  0  0
 23 24  1  0  0  0
 24 26  1  0  0  0
 26 27  1  0  0  0
 26 28  2  0  0  0
  5  6  1  0  0  0
  6  7  2  0  0  0
  6  8  1  0  0  0
  8 10  1  0  0  0
 10 15  1  0  0  0
 15 16  1  0  0  0
 16 17  1  0  0  0
 16 18  2  0  0  0
 10 11  1  0  0  0
 11 12  1  0  0  0
 11 13  2  0  0  0
 46 47  1  0  0  0
 49 50  1  0  0  0
 40 41  1  0  0  0
 35 36  1  0  0  0
  3  4  1  0  0  0
 24 25  1  0  0  0
 27 29  1  0  0  0
 27 30  1  0  0  0
 28 31  1  0  0  0
  8  9  1  0  0  0
 17 19  1  0  0  0
 12 14  1  0  0  0
M  END
> <minimizedAffinity>
0.21202

> <CNNscore>
0.3958696127

> <CNNaffinity>
7.5044274330

> <CNN_VS>
2.9707748890

> <CNNaffinity_variance>
0.2665212154

$$$$
[H]N=C(N([H])[H])N([H])C([H])([H])C([H])([H])C([H])([H])C([H])([H])[C@@]([H])(C(=O)N([H])[C@]([H])(C(=O)O[H])C([H])([H])C(=O)O[H])N([H])C(=O)[C@@]([H])(N([H])C(=O)[C@@]([H])(N([H])C(=O)[C@@]([H])(N([H])C(=O)C([H])([H])[H])C([H])([H])O[H])C([H])(C([H])([H])[H])C([H])([H])[H])C([H])(C([H])([H])[H])C([H])([H])[H]


 56 55  0  0  0  0  0  0  0  0999 V2000
    9.5245   48.0693  133.0986 C   0  0  0  0  0  0  0  0  0  0  0  0
    9.8278   49.2400  133.5697 O   0  0  0  0  0  0  0  0  0  0  0  0
    9.4919   47.9876  131.7233 N   0  0  0  0  0  0  0  0  0  0  0  0
    9.0968   47.0841  131.3134 H   0  0  0  0  0  0  0  0  0  0  0  0
    9.8757   48.9895  130.7637 C   0  0  0  0  0  0  0  0  0  0  0  0
    8.7844   49.8119  130.1981 C   0  0  0  0  0  0  0  0  0  0  0  0
    8.7575   51.0365  130.4212 O   0  0  0  0  0  0  0  0  0  0  0  0
    7.7884   49.2200  129.4065 N   0  0  0  0  0  0  0  0  0  0  0  0
    7.8040   48.1756  129.2285 H   0  0  0  0  0  0  0  0  0  0  0  0
    6.6778   49.9576  128.8050 C   0  0  0  0  0  0  0  0  0  0  0  0
    6.4580   51.1516  129.6622 C   0  0  0  0  0  0  0  0  0  0  0  0
    6.8144   52.4323  129.2914 O   0  0  0  0  0  0  0  0  0  0  0  0
    5.9155   51.0392  130.8001 O   0  0  0  0  0  0  0  0  0  0  0  0
    6.1805   53.2102  129.5028 H   0  0  0  0  0  0  0  0  0  0  0  0
    5.4483   49.0417  128.9163 C   0  0  0  0  0  0  0  0  0  0  0  0
    5.7668   47.6624  129.2259 C   0  0  0  0  0  0  0  0  0  0  0  0
    5.7312   46.6306  128.3255 O   0  0  0  0  0  0  0  0  0  0  0  0
    6.1052   47.3407  130.4130 O   0  0  0  0  0  0  0  0  0  0  0  0
    5.1234   45.8137  128.5651 H   0  0  0  0  0  0  0  0  0  0  0  0
   10.4908   48.1779  129.6394 C   0  0  0  0  0  0  0  0  0  0  0  0
    9.6611   47.6624  128.5430 C   0  0  0  0  0  0  0  0  0  0  0  0
    9.4953   46.1489  128.9160 C   0  0  0  0  0  0  0  0  0  0  0  0
    8.1146   45.6316  128.6729 C   0  0  0  0  0  0  0  0  0  0  0  0
    8.0422   44.3396  129.3757 N   0  0  0  0  0  0  0  0  0  0  0  0
    8.2076   43.4928  128.8105 H   0  0  0  0  0  0  0  0  0  0  0  0
    7.7782   44.2290  130.7450 C   0  0  0  0  0  0  0  0  0  0  0  0
    7.5948   42.9921  131.3838 N   0  0  0  0  0  0  0  0  0  0  0  0
    7.7050   45.3230  131.4504 N   0  0  0  0  0  0  0  0  0  0  0  0
    7.3116   42.9903  132.4155 H   0  0  0  0  0  0  0  0  0  0  0  0
    7.7128   42.0848  130.9486 H   0  0  0  0  0  0  0  0  0  0  0  0
    7.5196   45.3620  132.4371 H   0  0  0  0  0  0  0  0  0  0  0  0
    9.2770   47.0082  134.0444 C   0  0  0  0  0  0  0  0  0  0  0  0
    9.3555   44.3898  133.9400 C   0  0  0  0  0  0  0  0  0  0  0  0
    8.1430   44.0811  134.2218 O   0  0  0  0  0  0  0  0  0  0  0  0
    9.7581   45.6927  133.8755 N   0  0  0  0  0  0  0  0  0  0  0  0
   10.8914   45.7500  133.6929 H   0  0  0  0  0  0  0  0  0  0  0  0
   10.2740   43.2244  133.7035 C   0  0  0  0  0  0  0  0  0  0  0  0
   10.5909   42.6520  131.0395 C   0  0  0  0  0  0  0  0  0  0  0  0
   10.4400   41.5070  130.5082 O   0  0  0  0  0  0  0  0  0  0  0  0
   10.4378   42.9366  132.3363 N   0  0  0  0  0  0  0  0  0  0  0  0
    9.9734   41.6987  132.5832 H   0  0  0  0  0  0  0  0  0  0  0  0
   10.9842   43.6513  129.9549 C   0  0  0  0  0  0  0  0  0  0  0  0
   13.7968   45.8587  131.3917 C   0  0  0  0  0  0  0  0  0  0  0  0
   12.4677   45.2832  131.0898 C   0  0  0  0  0  0  0  0  0  0  0  0
   11.4654   45.7981  131.6332 O   0  0  0  0  0  0  0  0  0  0  0  0
   12.3007   44.1571  130.1916 N   0  0  0  0  0  0  0  0  0  0  0  0
   13.1833   43.7877  129.7664 H   0  0  0  0  0  0  0  0  0  0  0  0
   11.0672   42.7645  128.7040 C   0  0  0  0  0  0  0  0  0  0  0  0
    9.8351   42.8046  128.0834 O   0  0  0  0  0  0  0  0  0  0  0  0
    9.5620   42.0288  127.5671 H   0  0  0  0  0  0  0  0  0  0  0  0
   11.4956   43.0931  134.5232 C   0  0  0  0  0  0  0  0  0  0  0  0
   12.6755   43.9072  134.0088 C   0  0  0  0  0  0  0  0  0  0  0  0
   11.2592   43.4548  135.9805 C   0  0  0  0  0  0  0  0  0  0  0  0
    9.1207   47.4219  135.4838 C   0  0  0  0  0  0  0  0  0  0  0  0
    7.7925   48.0038  135.8244 C   0  0  0  0  0  0  0  0  0  0  0  0
    9.7253   46.4823  136.4533 C   0  0  0  0  0  0  0  0  0  0  0  0
 43 44  1  0  0  0
 44 45  2  0  0  0
 44 46  1  0  0  0
 46 42  1  0  0  0
 42 48  1  0  0  0
 48 49  1  0  0  0
 42 38  1  0  0  0
 38 39  2  0  0  0
 38 40  1  0  0  0
 40 37  1  0  0  0
 37 51  1  0  0  0
 51 52  1  0  0  0
 51 53  1  0  0  0
 37 33  1  0  0  0
 33 34  2  0  0  0
 33 35  1  0  0  0
 35 32  1  0  0  0
 32 54  1  0  0  0
 54 55  1  0  0  0
 54 56  1  0  0  0
 32  1  1  0  0  0
  1  2  2  0  0  0
  1  3  1  0  0  0
  3  5  1  0  0  0
  5 20  1  0  0  0
 20 21  1  0  0  0
 21 22  1  0  0  0
 22 23  1  0  0  0
 23 24  1  0  0  0
 24 26  1  0  0  0
 26 27  1  0  0  0
 26 28  2  0  0  0
  5  6  1  0  0  0
  6  7  2  0  0  0
  6  8  1  0  0  0
  8 10  1  0  0  0
 10 15  1  0  0  0
 15 16  1  0  0  0
 16 17  1  0  0  0
 16 18  2  0  0  0
 10 11  1  0  0  0
 11 12  1  0  0  0
 11 13  2  0  0  0
 46 47  1  0  0  0
 49 50  1  0  0  0
 40 41  1  0  0  0
 35 36  1  0  0  0
  3  4  1  0  0  0
 24 25  1  0  0  0
 27 29  1  0  0  0
 27 30  1  0  0  0
 28 31  1  0  0  0
  8  9  1  0  0  0
 17 19  1  0  0  0
 12 14  1  0  0  0
M  END
> <minimizedAffinity>
4.13785

> <CNNscore>
0.3889945745

> <CNNaffinity>
7.4857497215

> <CNN_VS>
2.9119160175

> <CNNaffinity_variance>
0.7681754827

$$$$
[H]N=C(N([H])[H])N([H])C([H])([H])C([H])([H])C([H])([H])C([H])([H])[C@@]([H])(C(=O)N([H])[C@]([H])(C(=O)O[H])C([H])([H])C(=O)O[H])N([H])C(=O)[C@@]([H])(N([H])C(=O)[C@@]([H])(N([H])C(=O)[C@@]([H])(N([H])C(=O)C([H])([H])[H])C([H])([H])O[H])C([H])(C([H])([H])[H])C([H])([H])[H])C([H])(C([H])([H])[H])C([H])([H])[H]


 56 55  0  0  0  0  0  0  0  0999 V2000
    9.3005   45.9058  128.8537 C   0  0  0  0  0  0  0  0  0  0  0  0
   10.1240   46.8528  128.5226 O   0  0  0  0  0  0  0  0  0  0  0  0
    7.9660   46.2320  128.7435 N   0  0  0  0  0  0  0  0  0  0  0  0
    7.2733   45.5304  129.1538 H   0  0  0  0  0  0  0  0  0  0  0  0
    7.3857   47.4273  128.1901 C   0  0  0  0  0  0  0  0  0  0  0  0
    7.7736   48.7040  128.8280 C   0  0  0  0  0  0  0  0  0  0  0  0
    7.4901   49.7811  128.2717 O   0  0  0  0  0  0  0  0  0  0  0  0
    8.4492   48.7049  130.0580 N   0  0  0  0  0  0  0  0  0  0  0  0
    8.7024   47.7877  130.5241 H   0  0  0  0  0  0  0  0  0  0  0  0
    8.8652   49.9187  130.7600 C   0  0  0  0  0  0  0  0  0  0  0  0
    9.8259   49.4853  131.8079 C   0  0  0  0  0  0  0  0  0  0  0  0
    9.9368   50.0965  133.0402 O   0  0  0  0  0  0  0  0  0  0  0  0
   10.6024   48.5062  131.6075 O   0  0  0  0  0  0  0  0  0  0  0  0
   10.0631   49.5177  133.8773 H   0  0  0  0  0  0  0  0  0  0  0  0
    7.6042   50.4661  131.4478 C   0  0  0  0  0  0  0  0  0  0  0  0
    6.5960   50.9543  130.5285 C   0  0  0  0  0  0  0  0  0  0  0  0
    6.7788   51.9815  129.6409 O   0  0  0  0  0  0  0  0  0  0  0  0
    5.4378   50.4198  130.5153 O   0  0  0  0  0  0  0  0  0  0  0  0
    6.1122   52.7853  129.7029 H   0  0  0  0  0  0  0  0  0  0  0  0
    5.8977   47.2229  128.4022 C   0  0  0  0  0  0  0  0  0  0  0  0
    5.3552   46.9862  129.7461 C   0  0  0  0  0  0  0  0  0  0  0  0
    3.8072   47.0729  129.5151 C   0  0  0  0  0  0  0  0  0  0  0  0
    3.0200   46.2728  130.5016 C   0  0  0  0  0  0  0  0  0  0  0  0
    2.1508   45.3942  129.7012 N   0  0  0  0  0  0  0  0  0  0  0  0
    2.5263   44.4647  129.4581 H   0  0  0  0  0  0  0  0  0  0  0  0
    0.8674   45.7634  129.2850 C   0  0  0  0  0  0  0  0  0  0  0  0
    0.2335   46.9340  129.7316 N   0  0  0  0  0  0  0  0  0  0  0  0
    0.2425   44.9859  128.4455 N   0  0  0  0  0  0  0  0  0  0  0  0
   -0.7805   47.1065  129.4373 H   0  0  0  0  0  0  0  0  0  0  0  0
    0.6593   47.6449  130.3146 H   0  0  0  0  0  0  0  0  0  0  0  0
   -0.6795   45.1514  128.0823 H   0  0  0  0  0  0  0  0  0  0  0  0
    9.8613   44.6448  129.2746 C   0  0  0  0  0  0  0  0  0  0  0  0
    9.3598   42.8962  131.1625 C   0  0  0  0  0  0  0  0  0  0  0  0
    9.2530   41.8095  130.4897 O   0  0  0  0  0  0  0  0  0  0  0  0
    9.6363   44.0844  130.5496 N   0  0  0  0  0  0  0  0  0  0  0  0
    9.6071   44.9422  131.3141 H   0  0  0  0  0  0  0  0  0  0  0  0
    9.1495   42.7552  132.6435 C   0  0  0  0  0  0  0  0  0  0  0  0
   11.0371   44.0973  134.1133 C   0  0  0  0  0  0  0  0  0  0  0  0
   11.5839   43.6694  135.1782 O   0  0  0  0  0  0  0  0  0  0  0  0
   10.1172   43.4480  133.3934 N   0  0  0  0  0  0  0  0  0  0  0  0
   10.2607   42.3455  134.1503 H   0  0  0  0  0  0  0  0  0  0  0  0
   11.5966   45.4808  133.7929 C   0  0  0  0  0  0  0  0  0  0  0  0
   13.0987   44.4943  130.3844 C   0  0  0  0  0  0  0  0  0  0  0  0
   12.6977   44.4803  131.8084 C   0  0  0  0  0  0  0  0  0  0  0  0
   13.0202   43.4901  132.5016 O   0  0  0  0  0  0  0  0  0  0  0  0
   11.9550   45.5700  132.4113 N   0  0  0  0  0  0  0  0  0  0  0  0
   11.7315   46.3684  131.7720 H   0  0  0  0  0  0  0  0  0  0  0  0
   10.3725   46.3860  133.9937 C   0  0  0  0  0  0  0  0  0  0  0  0
    9.8713   46.1337  135.2546 O   0  0  0  0  0  0  0  0  0  0  0  0
    8.9197   46.2636  135.3986 H   0  0  0  0  0  0  0  0  0  0  0  0
    7.7762   42.8141  133.1841 C   0  0  0  0  0  0  0  0  0  0  0  0
    7.4299   41.6626  134.1187 C   0  0  0  0  0  0  0  0  0  0  0  0
    7.4909   44.1219  133.9044 C   0  0  0  0  0  0  0  0  0  0  0  0
   10.0955   43.6253  128.1914 C   0  0  0  0  0  0  0  0  0  0  0  0
    8.8928   43.2925  127.3781 C   0  0  0  0  0  0  0  0  0  0  0  0
   11.3817   43.7839  127.4781 C   0  0  0  0  0  0  0  0  0  0  0  0
 43 44  1  0  0  0
 44 45  2  0  0  0
 44 46  1  0  0  0
 46 42  1  0  0  0
 42 48  1  0  0  0
 48 49  1  0  0  0
 42 38  1  0  0  0
 38 39  2  0  0  0
 38 40  1  0  0  0
 40 37  1  0  0  0
 37 51  1  0  0  0
 51 52  1  0  0  0
 51 53  1  0  0  0
 37 33  1  0  0  0
 33 34  2  0  0  0
 33 35  1  0  0  0
 35 32  1  0  0  0
 32 54  1  0  0  0
 54 55  1  0  0  0
 54 56  1  0  0  0
 32  1  1  0  0  0
  1  2  2  0  0  0
  1  3  1  0  0  0
  3  5  1  0  0  0
  5 20  1  0  0  0
 20 21  1  0  0  0
 21 22  1  0  0  0
 22 23  1  0  0  0
 23 24  1  0  0  0
 24 26  1  0  0  0
 26 27  1  0  0  0
 26 28  2  0  0  0
  5  6  1  0  0  0
  6  7  2  0  0  0
  6  8  1  0  0  0
  8 10  1  0  0  0
 10 15  1  0  0  0
 15 16  1  0  0  0
 16 17  1  0  0  0
 16 18  2  0  0  0
 10 11  1  0  0  0
 11 12  1  0  0  0
 11 13  2  0  0  0
 46 47  1  0  0  0
 49 50  1  0  0  0
 40 41  1  0  0  0
 35 36  1  0  0  0
  3  4  1  0  0  0
 24 25  1  0  0  0
 27 29  1  0  0  0
 27 30  1  0  0  0
 28 31  1  0  0  0
  8  9  1  0  0  0
 17 19  1  0  0  0
 12 14  1  0  0  0
M  END
> <minimizedAffinity>
3.78184

> <CNNscore>
0.3850292265

> <CNNaffinity>
7.4539170265

> <CNN_VS>
2.8699758053

> <CNNaffinity_variance>
0.2413938940

$$$$
[H]N=C(N([H])[H])N([H])C([H])([H])C([H])([H])C([H])([H])C([H])([H])[C@@]([H])(C(=O)N([H])[C@]([H])(C(=O)O[H])C([H])([H])C(=O)O[H])N([H])C(=O)[C@@]([H])(N([H])C(=O)[C@@]([H])(N([H])C(=O)[C@@]([H])(N([H])C(=O)C([H])([H])[H])C([H])([H])O[H])C([H])(C([H])([H])[H])C([H])([H])[H])C([H])(C([H])([H])[H])C([H])([H])[H]


 56 55  0  0  0  0  0  0  0  0999 V2000
    8.2046   44.7278  130.7702 C   0  0  0  0  0  0  0  0  0  0  0  0
    7.2145   45.1844  131.4744 O   0  0  0  0  0  0  0  0  0  0  0  0
    8.5079   45.4671  129.6473 N   0  0  0  0  0  0  0  0  0  0  0  0
    9.2110   45.0320  128.9715 H   0  0  0  0  0  0  0  0  0  0  0  0
    7.9567   46.7331  129.2406 C   0  0  0  0  0  0  0  0  0  0  0  0
    8.2751   47.8957  130.0976 C   0  0  0  0  0  0  0  0  0  0  0  0
    8.2910   49.0384  129.6036 O   0  0  0  0  0  0  0  0  0  0  0  0
    8.5492   47.7162  131.4620 N   0  0  0  0  0  0  0  0  0  0  0  0
    8.5492   46.7421  131.8788 H   0  0  0  0  0  0  0  0  0  0  0  0
    8.8683   48.8083  132.3812 C   0  0  0  0  0  0  0  0  0  0  0  0
    9.7125   49.7630  131.6167 C   0  0  0  0  0  0  0  0  0  0  0  0
    9.3131   51.0437  131.2930 O   0  0  0  0  0  0  0  0  0  0  0  0
   10.8685   49.4311  131.2225 O   0  0  0  0  0  0  0  0  0  0  0  0
    9.9880   51.8125  131.3642 H   0  0  0  0  0  0  0  0  0  0  0  0
    9.7207   48.1879  133.4999 C   0  0  0  0  0  0  0  0  0  0  0  0
    9.1104   47.0388  134.1379 C   0  0  0  0  0  0  0  0  0  0  0  0
    9.2807   45.7399  133.7375 O   0  0  0  0  0  0  0  0  0  0  0  0
    8.3475   47.2044  135.1467 O   0  0  0  0  0  0  0  0  0  0  0  0
    8.4157   45.1969  133.5111 H   0  0  0  0  0  0  0  0  0  0  0  0
    6.4595   46.4961  129.2983 C   0  0  0  0  0  0  0  0  0  0  0  0
    5.5345   47.3391  128.5301 C   0  0  0  0  0  0  0  0  0  0  0  0
    4.5563   47.8736  129.6322 C   0  0  0  0  0  0  0  0  0  0  0  0
    4.6403   49.3531  129.8251 C   0  0  0  0  0  0  0  0  0  0  0  0
    5.6996   49.8158  128.9129 N   0  0  0  0  0  0  0  0  0  0  0  0
    5.8334   49.2766  128.0439 H   0  0  0  0  0  0  0  0  0  0  0  0
    6.4957   50.9362  129.1732 C   0  0  0  0  0  0  0  0  0  0  0  0
    7.1301   51.6677  128.1563 N   0  0  0  0  0  0  0  0  0  0  0  0
    6.6466   51.3125  130.4124 N   0  0  0  0  0  0  0  0  0  0  0  0
    7.7916   52.4600  128.4376 H   0  0  0  0  0  0  0  0  0  0  0  0
    7.0122   51.5123  127.1620 H   0  0  0  0  0  0  0  0  0  0  0  0
    7.1950   52.0985  130.7140 H   0  0  0  0  0  0  0  0  0  0  0  0
    8.8692   43.5362  131.2393 C   0  0  0  0  0  0  0  0  0  0  0  0
   10.8281   43.1563  132.9398 C   0  0  0  0  0  0  0  0  0  0  0  0
   10.2301   42.5410  133.8931 O   0  0  0  0  0  0  0  0  0  0  0  0
   10.1567   43.5440  131.8160 N   0  0  0  0  0  0  0  0  0  0  0  0
   10.8504   44.1486  131.1273 H   0  0  0  0  0  0  0  0  0  0  0  0
   12.2907   43.4168  133.1645 C   0  0  0  0  0  0  0  0  0  0  0  0
   13.5205   44.5103  130.9698 C   0  0  0  0  0  0  0  0  0  0  0  0
   14.4017   45.4261  130.9981 O   0  0  0  0  0  0  0  0  0  0  0  0
   12.9182   43.9739  132.0355 N   0  0  0  0  0  0  0  0  0  0  0  0
   13.7281   44.6497  132.8699 H   0  0  0  0  0  0  0  0  0  0  0  0
   13.2545   44.1262  129.5167 C   0  0  0  0  0  0  0  0  0  0  0  0
   10.2849   45.6315  127.5769 C   0  0  0  0  0  0  0  0  0  0  0  0
   11.1963   44.6785  128.2477 C   0  0  0  0  0  0  0  0  0  0  0  0
   10.8801   43.4681  128.2573 O   0  0  0  0  0  0  0  0  0  0  0  0
   12.4286   45.1056  128.8814 N   0  0  0  0  0  0  0  0  0  0  0  0
   12.6313   46.1311  128.8226 H   0  0  0  0  0  0  0  0  0  0  0  0
   14.6490   44.2431  128.8843 C   0  0  0  0  0  0  0  0  0  0  0  0
   15.4269   43.2278  129.4026 O   0  0  0  0  0  0  0  0  0  0  0  0
   16.3842   43.3781  129.4676 H   0  0  0  0  0  0  0  0  0  0  0  0
   12.7328   43.9651  134.4627 C   0  0  0  0  0  0  0  0  0  0  0  0
   12.9057   45.4782  134.4679 C   0  0  0  0  0  0  0  0  0  0  0  0
   11.8026   43.5823  135.6023 C   0  0  0  0  0  0  0  0  0  0  0  0
    7.9789   42.4327  131.7461 C   0  0  0  0  0  0  0  0  0  0  0  0
    7.4115   42.6636  133.1038 C   0  0  0  0  0  0  0  0  0  0  0  0
    7.0837   41.8565  130.7191 C   0  0  0  0  0  0  0  0  0  0  0  0
 43 44  1  0  0  0
 44 45  2  0  0  0
 44 46  1  0  0  0
 46 42  1  0  0  0
 42 48  1  0  0  0
 48 49  1  0  0  0
 42 38  1  0  0  0
 38 39  2  0  0  0
 38 40  1  0  0  0
 40 37  1  0  0  0
 37 51  1  0  0  0
 51 52  1  0  0  0
 51 53  1  0  0  0
 37 33  1  0  0  0
 33 34  2  0  0  0
 33 35  1  0  0  0
 35 32  1  0  0  0
 32 54  1  0  0  0
 54 55  1  0  0  0
 54 56  1  0  0  0
 32  1  1  0  0  0
  1  2  2  0  0  0
  1  3  1  0  0  0
  3  5  1  0  0  0
  5 20  1  0  0  0
 20 21  1  0  0  0
 21 22  1  0  0  0
 22 23  1  0  0  0
 23 24  1  0  0  0
 24 26  1  0  0  0
 26 27  1  0  0  0
 26 28  2  0  0  0
  5  6  1  0  0  0
  6  7  2  0  0  0
  6  8  1  0  0  0
  8 10  1  0  0  0
 10 15  1  0  0  0
 15 16  1  0  0  0
 16 17  1  0  0  0
 16 18  2  0  0  0
 10 11  1  0  0  0
 11 12  1  0  0  0
 11 13  2  0  0  0
 46 47  1  0  0  0
 49 50  1  0  0  0
 40 41  1  0  0  0
 35 36  1  0  0  0
  3  4  1  0  0  0
 24 25  1  0  0  0
 27 29  1  0  0  0
 27 30  1  0  0  0
 28 31  1  0  0  0
  8  9  1  0  0  0
 17 19  1  0  0  0
 12 14  1  0  0  0
M  END
> <minimizedAffinity>
4.01562

> <CNNscore>
0.3782065511

> <CNNaffinity>
7.4424705505

> <CNN_VS>
2.8147912025

> <CNNaffinity_variance>
0.9195457697

$$$$
[H]N=C(N([H])[H])N([H])C([H])([H])C([H])([H])C([H])([H])C([H])([H])[C@@]([H])(C(=O)N([H])[C@]([H])(C(=O)O[H])C([H])([H])C(=O)O[H])N([H])C(=O)[C@@]([H])(N([H])C(=O)[C@@]([H])(N([H])C(=O)[C@@]([H])(N([H])C(=O)C([H])([H])[H])C([H])([H])O[H])C([H])(C([H])([H])[H])C([H])([H])[H])C([H])(C([H])([H])[H])C([H])([H])[H]


 56 55  0  0  0  0  0  0  0  0999 V2000
    9.3911   48.5171  131.5952 C   0  0  0  0  0  0  0  0  0  0  0  0
    8.7724   49.6031  131.2453 O   0  0  0  0  0  0  0  0  0  0  0  0
    9.8725   47.7605  130.5486 N   0  0  0  0  0  0  0  0  0  0  0  0
   10.2464   46.7921  130.7993 H   0  0  0  0  0  0  0  0  0  0  0  0
    9.8884   48.0891  129.1474 C   0  0  0  0  0  0  0  0  0  0  0  0
    8.6096   48.5505  128.5647 C   0  0  0  0  0  0  0  0  0  0  0  0
    8.0915   47.9092  127.6318 O   0  0  0  0  0  0  0  0  0  0  0  0
    7.9768   49.6988  129.0645 N   0  0  0  0  0  0  0  0  0  0  0  0
    8.4252   50.2520  129.8491 H   0  0  0  0  0  0  0  0  0  0  0  0
    6.7108   50.2220  128.5516 C   0  0  0  0  0  0  0  0  0  0  0  0
    6.6808   51.6643  128.9088 C   0  0  0  0  0  0  0  0  0  0  0  0
    6.5906   52.1267  130.2059 O   0  0  0  0  0  0  0  0  0  0  0  0
    6.7421   52.5539  128.0106 O   0  0  0  0  0  0  0  0  0  0  0  0
    7.1551   52.9341  130.4908 H   0  0  0  0  0  0  0  0  0  0  0  0
    5.6030   49.5001  129.3355 C   0  0  0  0  0  0  0  0  0  0  0  0
    5.6568   48.0553  129.2373 C   0  0  0  0  0  0  0  0  0  0  0  0
    5.2980   47.3329  128.1302 O   0  0  0  0  0  0  0  0  0  0  0  0
    6.0571   47.3666  130.2336 O   0  0  0  0  0  0  0  0  0  0  0  0
    4.5638   46.5993  128.2609 H   0  0  0  0  0  0  0  0  0  0  0  0
   10.2662   46.7774  128.4859 C   0  0  0  0  0  0  0  0  0  0  0  0
    9.6027   45.5242  128.8675 C   0  0  0  0  0  0  0  0  0  0  0  0
   10.6789   44.4407  128.5141 C   0  0  0  0  0  0  0  0  0  0  0  0
   12.0809   44.9178  128.7139 C   0  0  0  0  0  0  0  0  0  0  0  0
   12.6306   44.0974  129.8062 N   0  0  0  0  0  0  0  0  0  0  0  0
   13.1742   43.2643  129.5338 H   0  0  0  0  0  0  0  0  0  0  0  0
   12.4560   44.4102  131.1584 C   0  0  0  0  0  0  0  0  0  0  0  0
   12.7891   43.5193  132.1913 N   0  0  0  0  0  0  0  0  0  0  0  0
   11.9672   45.5796  131.4639 N   0  0  0  0  0  0  0  0  0  0  0  0
   12.5478   43.7942  133.1967 H   0  0  0  0  0  0  0  0  0  0  0  0
   13.2496   42.6252  132.0681 H   0  0  0  0  0  0  0  0  0  0  0  0
   11.7988   45.9084  132.3982 H   0  0  0  0  0  0  0  0  0  0  0  0
    9.5152   48.2394  133.0055 C   0  0  0  0  0  0  0  0  0  0  0  0
    9.5502   46.2440  134.7056 C   0  0  0  0  0  0  0  0  0  0  0  0
    9.2643   46.8351  135.8073 O   0  0  0  0  0  0  0  0  0  0  0  0
    9.6286   46.9349  133.5307 N   0  0  0  0  0  0  0  0  0  0  0  0
    9.9761   46.2403  132.6835 H   0  0  0  0  0  0  0  0  0  0  0  0
    9.7957   44.7658  134.8174 C   0  0  0  0  0  0  0  0  0  0  0  0
    8.6463   43.3453  132.7715 C   0  0  0  0  0  0  0  0  0  0  0  0
    7.9227   42.3091  132.9086 O   0  0  0  0  0  0  0  0  0  0  0  0
    9.2086   44.0412  133.7643 N   0  0  0  0  0  0  0  0  0  0  0  0
    8.5575   43.3089  134.6856 H   0  0  0  0  0  0  0  0  0  0  0  0
    8.7762   43.6631  131.2842 C   0  0  0  0  0  0  0  0  0  0  0  0
    9.7015   40.3312  129.5845 C   0  0  0  0  0  0  0  0  0  0  0  0
    9.7708   41.5833  130.3694 C   0  0  0  0  0  0  0  0  0  0  0  0
   10.8530   41.8695  130.9280 O   0  0  0  0  0  0  0  0  0  0  0  0
    8.6344   42.4742  130.5024 N   0  0  0  0  0  0  0  0  0  0  0  0
    7.7676   42.1739  129.9977 H   0  0  0  0  0  0  0  0  0  0  0  0
    7.5296   44.5199  131.0201 C   0  0  0  0  0  0  0  0  0  0  0  0
    7.4966   45.5125  131.9785 O   0  0  0  0  0  0  0  0  0  0  0  0
    6.6289   45.8611  132.2405 H   0  0  0  0  0  0  0  0  0  0  0  0
   11.1268   44.2876  135.2427 C   0  0  0  0  0  0  0  0  0  0  0  0
   11.4030   42.8324  134.8884 C   0  0  0  0  0  0  0  0  0  0  0  0
   12.2555   45.1413  134.6879 C   0  0  0  0  0  0  0  0  0  0  0  0
   10.2001   49.2938  133.8342 C   0  0  0  0  0  0  0  0  0  0  0  0
   11.5372   48.9016  134.3607 C   0  0  0  0  0  0  0  0  0  0  0  0
   10.0466   50.6692  133.3119 C   0  0  0  0  0  0  0  0  0  0  0  0
 43 44  1  0  0  0
 44 45  2  0  0  0
 44 46  1  0  0  0
 46 42  1  0  0  0
 42 48  1  0  0  0
 48 49  1  0  0  0
 42 38  1  0  0  0
 38 39  2  0  0  0
 38 40  1  0  0  0
 40 37  1  0  0  0
 37 51  1  0  0  0
 51 52  1  0  0  0
 51 53  1  0  0  0
 37 33  1  0  0  0
 33 34  2  0  0  0
 33 35  1  0  0  0
 35 32  1  0  0  0
 32 54  1  0  0  0
 54 55  1  0  0  0
 54 56  1  0  0  0
 32  1  1  0  0  0
  1  2  2  0  0  0
  1  3  1  0  0  0
  3  5  1  0  0  0
  5 20  1  0  0  0
 20 21  1  0  0  0
 21 22  1  0  0  0
 22 23  1  0  0  0
 23 24  1  0  0  0
 24 26  1  0  0  0
 26 27  1  0  0  0
 26 28  2  0  0  0
  5  6  1  0  0  0
  6  7  2  0  0  0
  6  8  1  0  0  0
  8 10  1  0  0  0
 10 15  1  0  0  0
 15 16  1  0  0  0
 16 17  1  0  0  0
 16 18  2  0  0  0
 10 11  1  0  0  0
 11 12  1  0  0  0
 11 13  2  0  0  0
 46 47  1  0  0  0
 49 50  1  0  0  0
 40 41  1  0  0  0
 35 36  1  0  0  0
  3  4  1  0  0  0
 24 25  1  0  0  0
 27 29  1  0  0  0
 27 30  1  0  0  0
 28 31  1  0  0  0
  8  9  1  0  0  0
 17 19  1  0  0  0
 12 14  1  0  0  0
M  END
> <minimizedAffinity>
4.33225

> <CNNscore>
0.3679666817

> <CNNaffinity>
7.5293412209

> <CNN_VS>
2.7705466747

> <CNNaffinity_variance>
0.8437879682

$$$$
[H]N=C(N([H])[H])N([H])C([H])([H])C([H])([H])C([H])([H])C([H])([H])[C@@]([H])(C(=O)N([H])[C@]([H])(C(=O)O[H])C([H])([H])C(=O)O[H])N([H])C(=O)[C@@]([H])(N([H])C(=O)[C@@]([H])(N([H])C(=O)[C@@]([H])(N([H])C(=O)C([H])([H])[H])C([H])([H])O[H])C([H])(C([H])([H])[H])C([H])([H])[H])C([H])(C([H])([H])[H])C([H])([H])[H]


 56 55  0  0  0  0  0  0  0  0999 V2000
    6.5718   48.7668  129.4630 C   0  0  0  0  0  0  0  0  0  0  0  0
    5.7724   49.1160  130.4241 O   0  0  0  0  0  0  0  0  0  0  0  0
    7.0659   49.8106  128.7108 N   0  0  0  0  0  0  0  0  0  0  0  0
    7.5982   49.5430  127.8245 H   0  0  0  0  0  0  0  0  0  0  0  0
    6.9112   51.2231  128.9401 C   0  0  0  0  0  0  0  0  0  0  0  0
    7.3380   52.1189  127.8434 C   0  0  0  0  0  0  0  0  0  0  0  0
    7.9135   51.6419  126.8478 O   0  0  0  0  0  0  0  0  0  0  0  0
    7.0890   53.4979  127.9174 N   0  0  0  0  0  0  0  0  0  0  0  0
    6.6116   53.9051  128.7711 H   0  0  0  0  0  0  0  0  0  0  0  0
    7.4717   54.4535  126.8783 C   0  0  0  0  0  0  0  0  0  0  0  0
    6.2101   54.8771  126.2167 C   0  0  0  0  0  0  0  0  0  0  0  0
    5.8714   54.5265  124.9257 O   0  0  0  0  0  0  0  0  0  0  0  0
    5.3682   55.5955  126.8306 O   0  0  0  0  0  0  0  0  0  0  0  0
    4.9029   54.2629  124.7154 H   0  0  0  0  0  0  0  0  0  0  0  0
    8.3156   53.6646  125.8642 C   0  0  0  0  0  0  0  0  0  0  0  0
    8.4332   54.3054  124.5698 C   0  0  0  0  0  0  0  0  0  0  0  0
    8.8469   55.5960  124.3709 O   0  0  0  0  0  0  0  0  0  0  0  0
    8.1350   53.6576  123.5122 O   0  0  0  0  0  0  0  0  0  0  0  0
    8.1977   56.2258  123.8454 H   0  0  0  0  0  0  0  0  0  0  0  0
    7.8036   51.4814  130.1393 C   0  0  0  0  0  0  0  0  0  0  0  0
    8.9149   50.5762  130.4585 C   0  0  0  0  0  0  0  0  0  0  0  0
    8.5223   50.0318  131.8751 C   0  0  0  0  0  0  0  0  0  0  0  0
    9.1109   48.6910  132.1733 C   0  0  0  0  0  0  0  0  0  0  0  0
    8.7312   48.3878  133.5634 N   0  0  0  0  0  0  0  0  0  0  0  0
    8.2793   49.1454  134.0978 H   0  0  0  0  0  0  0  0  0  0  0  0
    8.9448   47.1400  134.1584 C   0  0  0  0  0  0  0  0  0  0  0  0
    8.2401   45.9874  133.7755 N   0  0  0  0  0  0  0  0  0  0  0  0
    9.8387   47.0509  135.1032 N   0  0  0  0  0  0  0  0  0  0  0  0
    8.3957   45.0881  134.3336 H   0  0  0  0  0  0  0  0  0  0  0  0
    7.5889   45.9290  133.0014 H   0  0  0  0  0  0  0  0  0  0  0  0
   10.0724   46.2089  135.5990 H   0  0  0  0  0  0  0  0  0  0  0  0
    6.8578   47.3615  129.3044 C   0  0  0  0  0  0  0  0  0  0  0  0
    9.4740   47.1982  129.2599 C   0  0  0  0  0  0  0  0  0  0  0  0
    9.8092   48.4263  129.1032 O   0  0  0  0  0  0  0  0  0  0  0  0
    8.1629   46.8275  129.3468 N   0  0  0  0  0  0  0  0  0  0  0  0
    8.0763   45.6827  129.4007 H   0  0  0  0  0  0  0  0  0  0  0  0
   10.6178   46.2263  129.3271 C   0  0  0  0  0  0  0  0  0  0  0  0
   11.1177   45.3754  131.8865 C   0  0  0  0  0  0  0  0  0  0  0  0
   11.4887   46.1161  132.8507 O   0  0  0  0  0  0  0  0  0  0  0  0
   10.8728   45.7844  130.6380 N   0  0  0  0  0  0  0  0  0  0  0  0
   11.0170   47.0716  131.0001 H   0  0  0  0  0  0  0  0  0  0  0  0
   11.0045   43.9370  132.3846 C   0  0  0  0  0  0  0  0  0  0  0  0
    8.0034   42.1155  130.7963 C   0  0  0  0  0  0  0  0  0  0  0  0
    8.8462   42.9187  131.7092 C   0  0  0  0  0  0  0  0  0  0  0  0
    8.3094   43.4114  132.7261 O   0  0  0  0  0  0  0  0  0  0  0  0
   10.2569   43.1427  131.4598 N   0  0  0  0  0  0  0  0  0  0  0  0
   10.6372   42.6896  130.5960 H   0  0  0  0  0  0  0  0  0  0  0  0
   12.4588   43.4488  132.3153 C   0  0  0  0  0  0  0  0  0  0  0  0
   12.9658   43.4692  133.5988 O   0  0  0  0  0  0  0  0  0  0  0  0
   13.9203   43.6114  133.7071 H   0  0  0  0  0  0  0  0  0  0  0  0
   10.7459   45.1923  128.2802 C   0  0  0  0  0  0  0  0  0  0  0  0
    9.7283   44.0651  128.3970 C   0  0  0  0  0  0  0  0  0  0  0  0
   10.6639   45.7722  126.8775 C   0  0  0  0  0  0  0  0  0  0  0  0
    5.7914   46.4077  129.7737 C   0  0  0  0  0  0  0  0  0  0  0  0
    6.0948   45.7163  131.0576 C   0  0  0  0  0  0  0  0  0  0  0  0
    4.4098   46.8949  129.5685 C   0  0  0  0  0  0  0  0  0  0  0  0
 43 44  1  0  0  0
 44 45  2  0  0  0
 44 46  1  0  0  0
 46 42  1  0  0  0
 42 48  1  0  0  0
 48 49  1  0  0  0
 42 38  1  0  0  0
 38 39  2  0  0  0
 38 40  1  0  0  0
 40 37  1  0  0  0
 37 51  1  0  0  0
 51 52  1  0  0  0
 51 53  1  0  0  0
 37 33  1  0  0  0
 33 34  2  0  0  0
 33 35  1  0  0  0
 35 32  1  0  0  0
 32 54  1  0  0  0
 54 55  1  0  0  0
 54 56  1  0  0  0
 32  1  1  0  0  0
  1  2  2  0  0  0
  1  3  1  0  0  0
  3  5  1  0  0  0
  5 20  1  0  0  0
 20 21  1  0  0  0
 21 22  1  0  0  0
 22 23  1  0  0  0
 23 24  1  0  0  0
 24 26  1  0  0  0
 26 27  1  0  0  0
 26 28  2  0  0  0
  5  6  1  0  0  0
  6  7  2  0  0  0
  6  8  1  0  0  0
  8 10  1  0  0  0
 10 15  1  0  0  0
 15 16  1  0  0  0
 16 17  1  0  0  0
 16 18  2  0  0  0
 10 11  1  0  0  0
 11 12  1  0  0  0
 11 13  2  0  0  0
 46 47  1  0  0  0
 49 50  1  0  0  0
 40 41  1  0  0  0
 35 36  1  0  0  0
  3  4  1  0  0  0
 24 25  1  0  0  0
 27 29  1  0  0  0
 27 30  1  0  0  0
 28 31  1  0  0  0
  8  9  1  0  0  0
 17 19  1  0  0  0
 12 14  1  0  0  0
M  END
> <minimizedAffinity>
2.96435

> <CNNscore>
0.3598970473

> <CNNaffinity>
7.2081604004

> <CNN_VS>
2.5941956043

> <CNNaffinity_variance>
0.1285437346

$$$$
[H]N=C(N([H])[H])N([H])C([H])([H])C([H])([H])C([H])([H])C([H])([H])[C@@]([H])(C(=O)N([H])[C@]([H])(C(=O)O[H])C([H])([H])C(=O)O[H])N([H])C(=O)[C@@]([H])(N([H])C(=O)[C@@]([H])(N([H])C(=O)[C@@]([H])(N([H])C(=O)C([H])([H])[H])C([H])([H])O[H])C([H])(C([H])([H])[H])C([H])([H])[H])C([H])(C([H])([H])[H])C([H])([H])[H]


 56 55  0  0  0  0  0  0  0  0999 V2000
   10.2462   47.1866  130.1604 C   0  0  0  0  0  0  0  0  0  0  0  0
   10.1583   48.2168  129.3758 O   0  0  0  0  0  0  0  0  0  0  0  0
    9.7556   47.3827  131.4333 N   0  0  0  0  0  0  0  0  0  0  0  0
    9.9551   46.6078  132.1405 H   0  0  0  0  0  0  0  0  0  0  0  0
    9.0504   48.5272  131.9478 C   0  0  0  0  0  0  0  0  0  0  0  0
    8.4033   49.4055  130.9492 C   0  0  0  0  0  0  0  0  0  0  0  0
    8.7553   50.5961  130.8568 O   0  0  0  0  0  0  0  0  0  0  0  0
    7.4044   48.9004  130.1029 N   0  0  0  0  0  0  0  0  0  0  0  0
    7.0956   47.8908  130.1913 H   0  0  0  0  0  0  0  0  0  0  0  0
    6.7167   49.6959  129.0862 C   0  0  0  0  0  0  0  0  0  0  0  0
    6.3175   50.9645  129.7496 C   0  0  0  0  0  0  0  0  0  0  0  0
    6.7568   52.2081  129.3436 O   0  0  0  0  0  0  0  0  0  0  0  0
    5.5319   50.9554  130.7419 O   0  0  0  0  0  0  0  0  0  0  0  0
    6.0967   52.9929  129.3290 H   0  0  0  0  0  0  0  0  0  0  0  0
    5.4453   48.9129  128.7211 C   0  0  0  0  0  0  0  0  0  0  0  0
    5.5557   47.4821  128.9226 C   0  0  0  0  0  0  0  0  0  0  0  0
    4.6723   46.7236  129.6442 O   0  0  0  0  0  0  0  0  0  0  0  0
    6.5348   46.8435  128.4121 O   0  0  0  0  0  0  0  0  0  0  0  0
    5.0656   46.1610  130.4335 H   0  0  0  0  0  0  0  0  0  0  0  0
   10.1376   49.3218  132.6460 C   0  0  0  0  0  0  0  0  0  0  0  0
   10.5421   48.9968  134.0198 C   0  0  0  0  0  0  0  0  0  0  0  0
    9.5347   47.8642  134.4189 C   0  0  0  0  0  0  0  0  0  0  0  0
   10.2078   46.6344  134.9361 C   0  0  0  0  0  0  0  0  0  0  0  0
   10.8311   45.9968  133.7643 N   0  0  0  0  0  0  0  0  0  0  0  0
   10.1944   45.6365  133.0372 H   0  0  0  0  0  0  0  0  0  0  0  0
   12.2159   45.8805  133.6047 C   0  0  0  0  0  0  0  0  0  0  0  0
   12.9166   46.5255  132.5729 N   0  0  0  0  0  0  0  0  0  0  0  0
   12.8762   45.1447  134.4547 N   0  0  0  0  0  0  0  0  0  0  0  0
   13.9609   46.3211  132.4630 H   0  0  0  0  0  0  0  0  0  0  0  0
   12.5155   47.1823  131.9138 H   0  0  0  0  0  0  0  0  0  0  0  0
   13.8687   44.9900  134.4349 H   0  0  0  0  0  0  0  0  0  0  0  0
   10.8193   45.9778  129.6200 C   0  0  0  0  0  0  0  0  0  0  0  0
   11.8847   43.9391  130.8778 C   0  0  0  0  0  0  0  0  0  0  0  0
   13.1378   44.1823  130.7540 O   0  0  0  0  0  0  0  0  0  0  0  0
   10.9448   44.7827  130.3593 N   0  0  0  0  0  0  0  0  0  0  0  0
    9.8927   44.3436  130.5053 H   0  0  0  0  0  0  0  0  0  0  0  0
   11.5482   42.6732  131.6140 C   0  0  0  0  0  0  0  0  0  0  0  0
   10.1383   43.1422  133.9199 C   0  0  0  0  0  0  0  0  0  0  0  0
   10.6465   43.3274  135.0703 O   0  0  0  0  0  0  0  0  0  0  0  0
   10.8201   42.9134  132.7934 N   0  0  0  0  0  0  0  0  0  0  0  0
   11.9883   43.1424  133.4193 H   0  0  0  0  0  0  0  0  0  0  0  0
    8.6180   43.2156  134.0344 C   0  0  0  0  0  0  0  0  0  0  0  0
    7.3619   45.7889  131.4562 C   0  0  0  0  0  0  0  0  0  0  0  0
    7.8713   44.5480  132.0803 C   0  0  0  0  0  0  0  0  0  0  0  0
    8.0800   43.5598  131.3421 O   0  0  0  0  0  0  0  0  0  0  0  0
    8.1334   44.4516  133.5032 N   0  0  0  0  0  0  0  0  0  0  0  0
    7.9459   45.3222  134.0538 H   0  0  0  0  0  0  0  0  0  0  0  0
    8.1612   42.1090  133.0726 C   0  0  0  0  0  0  0  0  0  0  0  0
    7.0119   41.5520  133.5955 O   0  0  0  0  0  0  0  0  0  0  0  0
    6.8259   40.6209  133.3917 H   0  0  0  0  0  0  0  0  0  0  0  0
   11.1244   41.4850  130.8459 C   0  0  0  0  0  0  0  0  0  0  0  0
   10.9606   40.2287  131.6911 C   0  0  0  0  0  0  0  0  0  0  0  0
    9.8345   41.7199  130.0767 C   0  0  0  0  0  0  0  0  0  0  0  0
   10.6519   45.7656  128.1387 C   0  0  0  0  0  0  0  0  0  0  0  0
   10.7666   44.3482  127.6952 C   0  0  0  0  0  0  0  0  0  0  0  0
    9.5889   46.5910  127.5247 C   0  0  0  0  0  0  0  0  0  0  0  0
 43 44  1  0  0  0
 44 45  2  0  0  0
 44 46  1  0  0  0
 46 42  1  0  0  0
 42 48  1  0  0  0
 48 49  1  0  0  0
 42 38  1  0  0  0
 38 39  2  0  0  0
 38 40  1  0  0  0
 40 37  1  0  0  0
 37 51  1  0  0  0
 51 52  1  0  0  0
 51 53  1  0  0  0
 37 33  1  0  0  0
 33 34  2  0  0  0
 33 35  1  0  0  0
 35 32  1  0  0  0
 32 54  1  0  0  0
 54 55  1  0  0  0
 54 56  1  0  0  0
 32  1  1  0  0  0
  1  2  2  0  0  0
  1  3  1  0  0  0
  3  5  1  0  0  0
  5 20  1  0  0  0
 20 21  1  0  0  0
 21 22  1  0  0  0
 22 23  1  0  0  0
 23 24  1  0  0  0
 24 26  1  0  0  0
 26 27  1  0  0  0
 26 28  2  0  0  0
  5  6  1  0  0  0
  6  7  2  0  0  0
  6  8  1  0  0  0
  8 10  1  0  0  0
 10 15  1  0  0  0
 15 16  1  0  0  0
 16 17  1  0  0  0
 16 18  2  0  0  0
 10 11  1  0  0  0
 11 12  1  0  0  0
 11 13  2  0  0  0
 46 47  1  0  0  0
 49 50  1  0  0  0
 40 41  1  0  0  0
 35 36  1  0  0  0
  3  4  1  0  0  0
 24 25  1  0  0  0
 27 29  1  0  0  0
 27 30  1  0  0  0
 28 31  1  0  0  0
  8  9  1  0  0  0
 17 19  1  0  0  0
 12 14  1  0  0  0
M  END
> <minimizedAffinity>
3.21227

> <CNNscore>
0.3546697795

> <CNNaffinity>
7.4267411232

> <CNN_VS>
2.6340405941

> <CNNaffinity_variance>
0.3611705303

$$$$
[H]N=C(N([H])[H])N([H])C([H])([H])C([H])([H])C([H])([H])C([H])([H])[C@@]([H])(C(=O)N([H])[C@]([H])(C(=O)O[H])C([H])([H])C(=O)O[H])N([H])C(=O)[C@@]([H])(N([H])C(=O)[C@@]([H])(N([H])C(=O)[C@@]([H])(N([H])C(=O)C([H])([H])[H])C([H])([H])O[H])C([H])(C([H])([H])[H])C([H])([H])[H])C([H])(C([H])([H])[H])C([H])([H])[H]


 56 55  0  0  0  0  0  0  0  0999 V2000
   10.0117   48.2213  132.9580 C   0  0  0  0  0  0  0  0  0  0  0  0
   10.0128   49.4698  133.3128 O   0  0  0  0  0  0  0  0  0  0  0  0
    9.8480   48.0018  131.6072 N   0  0  0  0  0  0  0  0  0  0  0  0
    9.6889   46.9887  131.3096 H   0  0  0  0  0  0  0  0  0  0  0  0
    9.8122   48.9741  130.5464 C   0  0  0  0  0  0  0  0  0  0  0  0
    8.4862   49.5396  130.2160 C   0  0  0  0  0  0  0  0  0  0  0  0
    7.7534   49.9641  131.1287 O   0  0  0  0  0  0  0  0  0  0  0  0
    8.0573   49.6074  128.8817 N   0  0  0  0  0  0  0  0  0  0  0  0
    8.6755   49.2333  128.1068 H   0  0  0  0  0  0  0  0  0  0  0  0
    6.7660   50.1543  128.4660 C   0  0  0  0  0  0  0  0  0  0  0  0
    6.7632   51.5802  128.8852 C   0  0  0  0  0  0  0  0  0  0  0  0
    6.6461   51.9885  130.1982 O   0  0  0  0  0  0  0  0  0  0  0  0
    6.8749   52.5056  128.0291 O   0  0  0  0  0  0  0  0  0  0  0  0
    7.2228   52.7670  130.5345 H   0  0  0  0  0  0  0  0  0  0  0  0
    5.7024   49.4019  129.2816 C   0  0  0  0  0  0  0  0  0  0  0  0
    5.5969   47.9937  128.9562 C   0  0  0  0  0  0  0  0  0  0  0  0
    4.7525   47.1095  129.5740 O   0  0  0  0  0  0  0  0  0  0  0  0
    6.3293   47.4988  128.0366 O   0  0  0  0  0  0  0  0  0  0  0  0
    5.1877   46.2618  130.0055 H   0  0  0  0  0  0  0  0  0  0  0  0
   10.3100   48.1958  129.3433 C   0  0  0  0  0  0  0  0  0  0  0  0
    9.9464   46.7853  129.1571 C   0  0  0  0  0  0  0  0  0  0  0  0
   11.3079   46.1282  128.7427 C   0  0  0  0  0  0  0  0  0  0  0  0
   11.1396   44.8177  128.0447 C   0  0  0  0  0  0  0  0  0  0  0  0
   10.4495   43.9393  129.0041 N   0  0  0  0  0  0  0  0  0  0  0  0
   10.8265   43.9116  129.9637 H   0  0  0  0  0  0  0  0  0  0  0  0
    9.3260   43.1762  128.6692 C   0  0  0  0  0  0  0  0  0  0  0  0
    8.7857   43.1515  127.3734 N   0  0  0  0  0  0  0  0  0  0  0  0
    8.7658   42.4587  129.6025 N   0  0  0  0  0  0  0  0  0  0  0  0
    7.8756   42.6126  127.2127 H   0  0  0  0  0  0  0  0  0  0  0  0
    9.1900   43.6029  126.5613 H   0  0  0  0  0  0  0  0  0  0  0  0
    7.9570   41.8764  129.4754 H   0  0  0  0  0  0  0  0  0  0  0  0
   10.1927   47.2295  133.9901 C   0  0  0  0  0  0  0  0  0  0  0  0
   11.8072   45.1833  133.7083 C   0  0  0  0  0  0  0  0  0  0  0  0
   12.9402   45.7012  134.0134 O   0  0  0  0  0  0  0  0  0  0  0  0
   10.6601   45.9230  133.7350 N   0  0  0  0  0  0  0  0  0  0  0  0
    9.7752   45.2984  133.3503 H   0  0  0  0  0  0  0  0  0  0  0  0
   11.8508   43.7328  133.3185 C   0  0  0  0  0  0  0  0  0  0  0  0
    9.4387   42.4721  133.6604 C   0  0  0  0  0  0  0  0  0  0  0  0
    9.2777   41.3047  134.1372 O   0  0  0  0  0  0  0  0  0  0  0  0
   10.6111   43.0911  133.4917 N   0  0  0  0  0  0  0  0  0  0  0  0
   11.2590   42.1015  134.1319 H   0  0  0  0  0  0  0  0  0  0  0  0
    8.0727   43.0518  133.3031 C   0  0  0  0  0  0  0  0  0  0  0  0
    7.8036   45.8378  130.6548 C   0  0  0  0  0  0  0  0  0  0  0  0
    7.7734   45.1002  131.9370 C   0  0  0  0  0  0  0  0  0  0  0  0
    7.4346   45.7234  132.9674 O   0  0  0  0  0  0  0  0  0  0  0  0
    8.1182   43.6945  132.0264 N   0  0  0  0  0  0  0  0  0  0  0  0
    8.3801   43.2384  131.1212 H   0  0  0  0  0  0  0  0  0  0  0  0
    7.2130   41.7905  133.1351 C   0  0  0  0  0  0  0  0  0  0  0  0
    7.0932   41.5462  131.7820 O   0  0  0  0  0  0  0  0  0  0  0  0
    6.2914   41.0943  131.4721 H   0  0  0  0  0  0  0  0  0  0  0  0
   12.6000   43.3348  132.1095 C   0  0  0  0  0  0  0  0  0  0  0  0
   11.8900   42.2903  131.2583 C   0  0  0  0  0  0  0  0  0  0  0  0
   12.9490   44.5209  131.2254 C   0  0  0  0  0  0  0  0  0  0  0  0
   10.5464   47.7490  135.3584 C   0  0  0  0  0  0  0  0  0  0  0  0
    9.9971   46.9505  136.4895 C   0  0  0  0  0  0  0  0  0  0  0  0
   11.9363   48.2406  135.4791 C   0  0  0  0  0  0  0  0  0  0  0  0
 43 44  1  0  0  0
 44 45  2  0  0  0
 44 46  1  0  0  0
 46 42  1  0  0  0
 42 48  1  0  0  0
 48 49  1  0  0  0
 42 38  1  0  0  0
 38 39  2  0  0  0
 38 40  1  0  0  0
 40 37  1  0  0  0
 37 51  1  0  0  0
 51 52  1  0  0  0
 51 53  1  0  0  0
 37 33  1  0  0  0
 33 34  2  0  0  0
 33 35  1  0  0  0
 35 32  1  0  0  0
 32 54  1  0  0  0
 54 55  1  0  0  0
 54 56  1  0  0  0
 32  1  1  0  0  0
  1  2  2  0  0  0
  1  3  1  0  0  0
  3  5  1  0  0  0
  5 20  1  0  0  0
 20 21  1  0  0  0
 21 22  1  0  0  0
 22 23  1  0  0  0
 23 24  1  0  0  0
 24 26  1  0  0  0
 26 27  1  0  0  0
 26 28  2  0  0  0
  5  6  1  0  0  0
  6  7  2  0  0  0
  6  8  1  0  0  0
  8 10  1  0  0  0
 10 15  1  0  0  0
 15 16  1  0  0  0
 16 17  1  0  0  0
 16 18  2  0  0  0
 10 11  1  0  0  0
 11 12  1  0  0  0
 11 13  2  0  0  0
 46 47  1  0  0  0
 49 50  1  0  0  0
 40 41  1  0  0  0
 35 36  1  0  0  0
  3  4  1  0  0  0
 24 25  1  0  0  0
 27 29  1  0  0  0
 27 30  1  0  0  0
 28 31  1  0  0  0
  8  9  1  0  0  0
 17 19  1  0  0  0
 12 14  1  0  0  0
M  END
> <minimizedAffinity>
2.89316

> <CNNscore>
0.3510499001

> <CNNaffinity>
7.5639138222

> <CNN_VS>
2.6553111076

> <CNNaffinity_variance>
0.6010292768

$$$$
[H]OC(=O)[C@@]1([H])N(C(=O)[C@@]2([H])N(C(=O)[C@@]([H])(N([H])C(=O)[C@@]3([H])N([H])C([H])([H])C([H])([H])C3([H])[H])C([H])([H])c3c([H])c([H])c([H])c([H])c3[H])C([H])([H])C([H])([H])C2([H])[H])C([H])([H])C([H])([H])C1([H])[H]


 36 39  0  0  0  0  0  0  0  0999 V2000
    9.2385   48.5193  132.4008 C   0  0  0  0  0  0  0  0  0  0  0  0
   10.1977   49.3683  133.2869 C   0  0  0  0  0  0  0  0  0  0  0  0
   10.7839   48.3156  134.1698 C   0  0  0  0  0  0  0  0  0  0  0  0
   10.3195   46.9702  133.5759 C   0  0  0  0  0  0  0  0  0  0  0  0
   10.1082   47.4653  132.1363 N   0  0  0  0  0  0  0  0  0  0  0  0
   10.8664   46.8436  131.0798 C   0  0  0  0  0  0  0  0  0  0  0  0
   10.8479   47.3818  129.9342 O   0  0  0  0  0  0  0  0  0  0  0  0
    6.9610   49.2288  129.3678 C   0  0  0  0  0  0  0  0  0  0  0  0
    5.7206   48.3178  129.4142 C   0  0  0  0  0  0  0  0  0  0  0  0
    6.4549   46.9684  129.4903 C   0  0  0  0  0  0  0  0  0  0  0  0
    7.6068   47.2573  130.3941 C   0  0  0  0  0  0  0  0  0  0  0  0
    7.7632   48.7282  130.4360 N   0  0  0  0  0  0  0  0  0  0  0  0
    8.6218   49.3629  131.4099 C   0  0  0  0  0  0  0  0  0  0  0  0
    8.8194   50.5966  131.3972 O   0  0  0  0  0  0  0  0  0  0  0  0
    7.0104   51.4317  128.3461 O   0  0  0  0  0  0  0  0  0  0  0  0
    6.5760   50.6278  129.3732 C   0  0  0  0  0  0  0  0  0  0  0  0
    5.8663   51.1219  130.2726 O   0  0  0  0  0  0  0  0  0  0  0  0
    7.6743   52.1664  128.4840 H   0  0  0  0  0  0  0  0  0  0  0  0
   11.6652   45.6310  131.3777 C   0  0  0  0  0  0  0  0  0  0  0  0
   11.2975   45.0924  132.6407 N   0  0  0  0  0  0  0  0  0  0  0  0
   11.4029   43.8134  133.1800 C   0  0  0  0  0  0  0  0  0  0  0  0
   11.8819   42.8576  132.5776 O   0  0  0  0  0  0  0  0  0  0  0  0
   10.8381   45.8185  133.3080 H   0  0  0  0  0  0  0  0  0  0  0  0
   10.8809   43.6157  134.5648 C   0  0  0  0  0  0  0  0  0  0  0  0
   10.2406   44.9115  135.0823 C   0  0  0  0  0  0  0  0  0  0  0  0
   10.2427   44.7229  136.5759 C   0  0  0  0  0  0  0  0  0  0  0  0
   11.2706   43.6234  136.8376 C   0  0  0  0  0  0  0  0  0  0  0  0
   11.8847   43.3127  135.5622 N   0  0  0  0  0  0  0  0  0  0  0  0
   12.8226   43.6304  135.4109 H   0  0  0  0  0  0  0  0  0  0  0  0
   12.1967   44.7926  130.3406 C   0  0  0  0  0  0  0  0  0  0  0  0
   11.3165   44.1802  129.3177 C   0  0  0  0  0  0  0  0  0  0  0  0
   11.2692   44.5163  127.9844 C   0  0  0  0  0  0  0  0  0  0  0  0
   10.3573   43.9757  127.0698 C   0  0  0  0  0  0  0  0  0  0  0  0
    9.4569   43.0403  127.5593 C   0  0  0  0  0  0  0  0  0  0  0  0
    9.4683   42.6718  128.8845 C   0  0  0  0  0  0  0  0  0  0  0  0
   10.3779   43.2268  129.7433 C   0  0  0  0  0  0  0  0  0  0  0  0
 15 16  1  0  0  0
 16 17  2  0  0  0
 16  8  1  0  0  0
  8  9  1  0  0  0
  9 10  1  0  0  0
 10 11  1  0  0  0
 11 12  1  0  0  0
 12 13  1  0  0  0
 13 14  2  0  0  0
 13  1  1  0  0  0
  1  2  1  0  0  0
  2  3  1  0  0  0
  3  4  1  0  0  0
  4  5  1  0  0  0
  5  6  1  0  0  0
  6  7  2  0  0  0
  6 19  1  0  0  0
 19 30  1  0  0  0
 30 31  1  0  0  0
 31 32  2  0  0  0
 32 33  1  0  0  0
 33 34  2  0  0  0
 34 35  1  0  0  0
 35 36  2  0  0  0
 19 20  1  0  0  0
 20 21  1  0  0  0
 21 22  2  0  0  0
 21 24  1  0  0  0
 24 25  1  0  0  0
 25 26  1  0  0  0
 26 27  1  0  0  0
 27 28  1  0  0  0
 12  8  1  0  0  0
  5  1  1  0  0  0
 36 31  1  0  0  0
 28 24  1  0  0  0
 15 18  1  0  0  0
 20 23  1  0  0  0
 28 29  1  0  0  0
M  END
> <minimizedAffinity>
-1.37620

> <CNNscore>
0.5555231571

> <CNNaffinity>
7.9635176659

> <CNN_VS>
4.4239182472

> <CNNaffinity_variance>
0.5133884549

$$$$
[H]OC(=O)[C@@]1([H])N(C(=O)[C@@]2([H])N(C(=O)[C@@]([H])(N([H])C(=O)[C@@]3([H])N([H])C([H])([H])C([H])([H])C3([H])[H])C([H])([H])c3c([H])c([H])c([H])c([H])c3[H])C([H])([H])C([H])([H])C2([H])[H])C([H])([H])C([H])([H])C1([H])[H]


 36 39  0  0  0  0  0  0  0  0999 V2000
    8.6729   48.8298  131.9490 C   0  0  0  0  0  0  0  0  0  0  0  0
   10.0886   49.1468  132.5160 C   0  0  0  0  0  0  0  0  0  0  0  0
   10.2920   47.9962  133.4467 C   0  0  0  0  0  0  0  0  0  0  0  0
    9.1311   47.0216  133.1615 C   0  0  0  0  0  0  0  0  0  0  0  0
    8.8621   47.4705  131.7164 N   0  0  0  0  0  0  0  0  0  0  0  0
    8.9823   46.4948  130.6623 C   0  0  0  0  0  0  0  0  0  0  0  0
    8.9637   46.9035  129.4644 O   0  0  0  0  0  0  0  0  0  0  0  0
    6.6299   50.1729  128.9637 C   0  0  0  0  0  0  0  0  0  0  0  0
    5.1664   49.7073  129.0731 C   0  0  0  0  0  0  0  0  0  0  0  0
    5.4344   48.1956  129.1679 C   0  0  0  0  0  0  0  0  0  0  0  0
    6.6509   48.1181  130.0289 C   0  0  0  0  0  0  0  0  0  0  0  0
    7.2696   49.4622  130.0225 N   0  0  0  0  0  0  0  0  0  0  0  0
    8.3212   49.8074  130.9519 C   0  0  0  0  0  0  0  0  0  0  0  0
    8.9012   50.9128  130.8968 O   0  0  0  0  0  0  0  0  0  0  0  0
    7.0952   52.2369  127.7710 O   0  0  0  0  0  0  0  0  0  0  0  0
    6.7116   51.6213  128.9389 C   0  0  0  0  0  0  0  0  0  0  0  0
    6.4447   52.3228  129.9356 O   0  0  0  0  0  0  0  0  0  0  0  0
    7.9659   52.7198  127.6801 H   0  0  0  0  0  0  0  0  0  0  0  0
    9.1618   45.0661  131.0141 C   0  0  0  0  0  0  0  0  0  0  0  0
   10.3684   44.5649  130.4543 N   0  0  0  0  0  0  0  0  0  0  0  0
   11.7074   44.8453  130.7113 C   0  0  0  0  0  0  0  0  0  0  0  0
   12.0844   45.6557  131.5521 O   0  0  0  0  0  0  0  0  0  0  0  0
   10.2124   43.8283  129.6690 H   0  0  0  0  0  0  0  0  0  0  0  0
   12.7223   44.1180  129.8924 C   0  0  0  0  0  0  0  0  0  0  0  0
   14.1401   44.4887  130.3500 C   0  0  0  0  0  0  0  0  0  0  0  0
   14.9915   44.1166  129.1654 C   0  0  0  0  0  0  0  0  0  0  0  0
   14.0209   44.0273  127.9891 C   0  0  0  0  0  0  0  0  0  0  0  0
   12.7248   44.4472  128.4832 N   0  0  0  0  0  0  0  0  0  0  0  0
   12.3919   45.3487  128.2005 H   0  0  0  0  0  0  0  0  0  0  0  0
    8.6083   44.4989  132.2112 C   0  0  0  0  0  0  0  0  0  0  0  0
    9.4427   44.2755  133.4154 C   0  0  0  0  0  0  0  0  0  0  0  0
    9.3420   44.9550  134.6075 C   0  0  0  0  0  0  0  0  0  0  0  0
   10.2113   44.7753  135.6901 C   0  0  0  0  0  0  0  0  0  0  0  0
   11.2282   43.8446  135.5311 C   0  0  0  0  0  0  0  0  0  0  0  0
   11.3665   43.1400  134.3579 C   0  0  0  0  0  0  0  0  0  0  0  0
   10.4932   43.3486  133.3250 C   0  0  0  0  0  0  0  0  0  0  0  0
 15 16  1  0  0  0
 16 17  2  0  0  0
 16  8  1  0  0  0
  8  9  1  0  0  0
  9 10  1  0  0  0
 10 11  1  0  0  0
 11 12  1  0  0  0
 12 13  1  0  0  0
 13 14  2  0  0  0
 13  1  1  0  0  0
  1  2  1  0  0  0
  2  3  1  0  0  0
  3  4  1  0  0  0
  4  5  1  0  0  0
  5  6  1  0  0  0
  6  7  2  0  0  0
  6 19  1  0  0  0
 19 30  1  0  0  0
 30 31  1  0  0  0
 31 32  2  0  0  0
 32 33  1  0  0  0
 33 34  2  0  0  0
 34 35  1  0  0  0
 35 36  2  0  0  0
 19 20  1  0  0  0
 20 21  1  0  0  0
 21 22  2  0  0  0
 21 24  1  0  0  0
 24 25  1  0  0  0
 25 26  1  0  0  0
 26 27  1  0  0  0
 27 28  1  0  0  0
 12  8  1  0  0  0
  5  1  1  0  0  0
 36 31  1  0  0  0
 28 24  1  0  0  0
 15 18  1  0  0  0
 20 23  1  0  0  0
 28 29  1  0  0  0
M  END
> <minimizedAffinity>
1.70534

> <CNNscore>
0.5175576210

> <CNNaffinity>
7.9155831337

> <CNN_VS>
4.0967702866

> <CNNaffinity_variance>
0.9738274813

$$$$
[H]OC(=O)[C@@]1([H])N(C(=O)[C@@]2([H])N(C(=O)[C@@]([H])(N([H])C(=O)[C@@]3([H])N([H])C([H])([H])C([H])([H])C3([H])[H])C([H])([H])c3c([H])c([H])c([H])c([H])c3[H])C([H])([H])C([H])([H])C2([H])[H])C([H])([H])C([H])([H])C1([H])[H]


 36 39  0  0  0  0  0  0  0  0999 V2000
    9.1805   46.9350  133.3229 C   0  0  0  0  0  0  0  0  0  0  0  0
    9.4343   46.5387  134.8076 C   0  0  0  0  0  0  0  0  0  0  0  0
    9.1914   45.0656  134.7596 C   0  0  0  0  0  0  0  0  0  0  0  0
    9.0682   44.7139  133.2630 C   0  0  0  0  0  0  0  0  0  0  0  0
    9.8896   45.8967  132.7257 N   0  0  0  0  0  0  0  0  0  0  0  0
   11.0723   45.6141  131.9519 C   0  0  0  0  0  0  0  0  0  0  0  0
   11.8557   46.5722  131.6858 O   0  0  0  0  0  0  0  0  0  0  0  0
    9.2848   50.2275  131.3132 C   0  0  0  0  0  0  0  0  0  0  0  0
    8.0850   50.2970  130.3508 C   0  0  0  0  0  0  0  0  0  0  0  0
    8.3314   48.9700  129.6131 C   0  0  0  0  0  0  0  0  0  0  0  0
    8.7805   48.0529  130.7014 C   0  0  0  0  0  0  0  0  0  0  0  0
    9.1945   48.9042  131.8387 N   0  0  0  0  0  0  0  0  0  0  0  0
    9.4459   48.3392  133.1449 C   0  0  0  0  0  0  0  0  0  0  0  0
    9.8731   49.0411  134.0862 O   0  0  0  0  0  0  0  0  0  0  0  0
    8.6863   52.5245  131.8275 O   0  0  0  0  0  0  0  0  0  0  0  0
    9.2775   51.3509  132.2314 C   0  0  0  0  0  0  0  0  0  0  0  0
    9.7849   51.2869  133.3695 O   0  0  0  0  0  0  0  0  0  0  0  0
    9.2111   53.3576  131.6541 H   0  0  0  0  0  0  0  0  0  0  0  0
   11.3482   44.2193  131.5329 C   0  0  0  0  0  0  0  0  0  0  0  0
   10.4514   43.3219  132.1740 N   0  0  0  0  0  0  0  0  0  0  0  0
   10.4666   41.9395  132.3365 C   0  0  0  0  0  0  0  0  0  0  0  0
   11.3547   41.2124  131.9024 O   0  0  0  0  0  0  0  0  0  0  0  0
    9.5841   43.8105  132.6127 H   0  0  0  0  0  0  0  0  0  0  0  0
    9.3175   41.3298  133.0693 C   0  0  0  0  0  0  0  0  0  0  0  0
    7.9929   41.9269  132.5735 C   0  0  0  0  0  0  0  0  0  0  0  0
    7.0383   41.6259  133.6981 C   0  0  0  0  0  0  0  0  0  0  0  0
    7.9254   41.3369  134.9077 C   0  0  0  0  0  0  0  0  0  0  0  0
    9.2917   41.5857  134.4934 N   0  0  0  0  0  0  0  0  0  0  0  0
    9.7368   42.4134  134.8403 H   0  0  0  0  0  0  0  0  0  0  0  0
   11.9250   43.9052  130.2563 C   0  0  0  0  0  0  0  0  0  0  0  0
   11.1400   44.0261  129.0052 C   0  0  0  0  0  0  0  0  0  0  0  0
   10.3500   43.0475  128.4474 C   0  0  0  0  0  0  0  0  0  0  0  0
    9.6974   43.1723  127.2150 C   0  0  0  0  0  0  0  0  0  0  0  0
    9.8677   44.3685  126.5326 C   0  0  0  0  0  0  0  0  0  0  0  0
   10.6466   45.3760  127.0524 C   0  0  0  0  0  0  0  0  0  0  0  0
   11.2665   45.2100  128.2613 C   0  0  0  0  0  0  0  0  0  0  0  0
 15 16  1  0  0  0
 16 17  2  0  0  0
 16  8  1  0  0  0
  8  9  1  0  0  0
  9 10  1  0  0  0
 10 11  1  0  0  0
 11 12  1  0  0  0
 12 13  1  0  0  0
 13 14  2  0  0  0
 13  1  1  0  0  0
  1  2  1  0  0  0
  2  3  1  0  0  0
  3  4  1  0  0  0
  4  5  1  0  0  0
  5  6  1  0  0  0
  6  7  2  0  0  0
  6 19  1  0  0  0
 19 30  1  0  0  0
 30 31  1  0  0  0
 31 32  2  0  0  0
 32 33  1  0  0  0
 33 34  2  0  0  0
 34 35  1  0  0  0
 35 36  2  0  0  0
 19 20  1  0  0  0
 20 21  1  0  0  0
 21 22  2  0  0  0
 21 24  1  0  0  0
 24 25  1  0  0  0
 25 26  1  0  0  0
 26 27  1  0  0  0
 27 28  1  0  0  0
 12  8  1  0  0  0
  5  1  1  0  0  0
 36 31  1  0  0  0
 28 24  1  0  0  0
 15 18  1  0  0  0
 20 23  1  0  0  0
 28 29  1  0  0  0
M  END
> <minimizedAffinity>
12.93132

> <CNNscore>
0.5142371655

> <CNNaffinity>
7.6066155434

> <CNN_VS>
3.9116044044

> <CNNaffinity_variance>
1.0037243366

$$$$
[H]OC(=O)[C@@]1([H])N(C(=O)[C@@]2([H])N(C(=O)[C@@]([H])(N([H])C(=O)[C@@]3([H])N([H])C([H])([H])C([H])([H])C3([H])[H])C([H])([H])c3c([H])c([H])c([H])c([H])c3[H])C([H])([H])C([H])([H])C2([H])[H])C([H])([H])C([H])([H])C1([H])[H]


 36 39  0  0  0  0  0  0  0  0999 V2000
    9.0522   48.5472  132.5774 C   0  0  0  0  0  0  0  0  0  0  0  0
    9.9753   49.3981  133.4993 C   0  0  0  0  0  0  0  0  0  0  0  0
   10.4291   48.3698  134.4831 C   0  0  0  0  0  0  0  0  0  0  0  0
    9.9479   47.0167  133.9207 C   0  0  0  0  0  0  0  0  0  0  0  0
    9.8855   47.4403  132.4446 N   0  0  0  0  0  0  0  0  0  0  0  0
   10.6975   46.7258  131.4919 C   0  0  0  0  0  0  0  0  0  0  0  0
   10.8042   47.1996  130.3229 O   0  0  0  0  0  0  0  0  0  0  0  0
    7.0632   49.1983  129.3354 C   0  0  0  0  0  0  0  0  0  0  0  0
    5.7700   48.3628  129.3325 C   0  0  0  0  0  0  0  0  0  0  0  0
    6.4128   46.9814  129.5431 C   0  0  0  0  0  0  0  0  0  0  0  0
    7.5068   47.2594  130.5194 C   0  0  0  0  0  0  0  0  0  0  0  0
    7.7486   48.7190  130.4913 N   0  0  0  0  0  0  0  0  0  0  0  0
    8.5663   49.3624  131.4943 C   0  0  0  0  0  0  0  0  0  0  0  0
    8.8389   50.5801  131.4284 O   0  0  0  0  0  0  0  0  0  0  0  0
    7.2029   51.2974  128.1217 O   0  0  0  0  0  0  0  0  0  0  0  0
    6.7648   50.6143  129.2314 C   0  0  0  0  0  0  0  0  0  0  0  0
    6.1255   51.2287  130.1094 O   0  0  0  0  0  0  0  0  0  0  0  0
    7.9156   51.9969  128.1691 H   0  0  0  0  0  0  0  0  0  0  0  0
   11.4043   45.4954  131.9205 C   0  0  0  0  0  0  0  0  0  0  0  0
   10.4948   44.4069  132.0120 N   0  0  0  0  0  0  0  0  0  0  0  0
   10.4213   43.3180  132.8761 C   0  0  0  0  0  0  0  0  0  0  0  0
   11.2190   43.1158  133.7864 O   0  0  0  0  0  0  0  0  0  0  0  0
    9.7132   44.4262  131.2556 H   0  0  0  0  0  0  0  0  0  0  0  0
    9.3099   42.3468  132.6508 C   0  0  0  0  0  0  0  0  0  0  0  0
    8.7948   42.4526  131.2085 C   0  0  0  0  0  0  0  0  0  0  0  0
    7.4232   41.8367  131.2877 C   0  0  0  0  0  0  0  0  0  0  0  0
    7.0576   41.8667  132.7706 C   0  0  0  0  0  0  0  0  0  0  0  0
    8.1251   42.5728  133.4505 N   0  0  0  0  0  0  0  0  0  0  0  0
    7.9335   43.5019  133.7724 H   0  0  0  0  0  0  0  0  0  0  0  0
   12.7957   45.2774  131.6420 C   0  0  0  0  0  0  0  0  0  0  0  0
   13.2441   44.7250  130.3420 C   0  0  0  0  0  0  0  0  0  0  0  0
   14.5447   44.4577  129.9814 C   0  0  0  0  0  0  0  0  0  0  0  0
   14.9333   44.0218  128.7089 C   0  0  0  0  0  0  0  0  0  0  0  0
   13.9267   43.8502  127.7694 C   0  0  0  0  0  0  0  0  0  0  0  0
   12.6121   44.1030  128.0854 C   0  0  0  0  0  0  0  0  0  0  0  0
   12.2780   44.5282  129.3427 C   0  0  0  0  0  0  0  0  0  0  0  0
 15 16  1  0  0  0
 16 17  2  0  0  0
 16  8  1  0  0  0
  8  9  1  0  0  0
  9 10  1  0  0  0
 10 11  1  0  0  0
 11 12  1  0  0  0
 12 13  1  0  0  0
 13 14  2  0  0  0
 13  1  1  0  0  0
  1  2  1  0  0  0
  2  3  1  0  0  0
  3  4  1  0  0  0
  4  5  1  0  0  0
  5  6  1  0  0  0
  6  7  2  0  0  0
  6 19  1  0  0  0
 19 30  1  0  0  0
 30 31  1  0  0  0
 31 32  2  0  0  0
 32 33  1  0  0  0
 33 34  2  0  0  0
 34 35  1  0  0  0
 35 36  2  0  0  0
 19 20  1  0  0  0
 20 21  1  0  0  0
 21 22  2  0  0  0
 21 24  1  0  0  0
 24 25  1  0  0  0
 25 26  1  0  0  0
 26 27  1  0  0  0
 27 28  1  0  0  0
 12  8  1  0  0  0
  5  1  1  0  0  0
 36 31  1  0  0  0
 28 24  1  0  0  0
 15 18  1  0  0  0
 20 23  1  0  0  0
 28 29  1  0  0  0
M  END
> <minimizedAffinity>
3.95750

> <CNNscore>
0.5094184875

> <CNNaffinity>
7.6782698631

> <CNN_VS>
3.9114525318

> <CNNaffinity_variance>
0.6161893606

$$$$
[H]OC(=O)[C@@]1([H])N(C(=O)[C@@]2([H])N(C(=O)[C@@]([H])(N([H])C(=O)[C@@]3([H])N([H])C([H])([H])C([H])([H])C3([H])[H])C([H])([H])c3c([H])c([H])c([H])c([H])c3[H])C([H])([H])C([H])([H])C2([H])[H])C([H])([H])C([H])([H])C1([H])[H]


 36 39  0  0  0  0  0  0  0  0999 V2000
    9.3615   48.5041  132.4659 C   0  0  0  0  0  0  0  0  0  0  0  0
   10.1548   49.7815  132.8722 C   0  0  0  0  0  0  0  0  0  0  0  0
   10.6148   49.4123  134.2445 C   0  0  0  0  0  0  0  0  0  0  0  0
   10.2736   47.9172  134.4084 C   0  0  0  0  0  0  0  0  0  0  0  0
   10.2809   47.5598  132.9135 N   0  0  0  0  0  0  0  0  0  0  0  0
   11.2060   46.5546  132.4540 C   0  0  0  0  0  0  0  0  0  0  0  0
   11.3570   46.4068  131.2059 O   0  0  0  0  0  0  0  0  0  0  0  0
    7.4178   47.3689  129.3317 C   0  0  0  0  0  0  0  0  0  0  0  0
    6.1230   46.6463  129.7462 C   0  0  0  0  0  0  0  0  0  0  0  0
    6.7601   45.5778  130.6509 C   0  0  0  0  0  0  0  0  0  0  0  0
    7.8413   46.3276  131.3551 C   0  0  0  0  0  0  0  0  0  0  0  0
    8.0865   47.5622  130.5770 N   0  0  0  0  0  0  0  0  0  0  0  0
    8.8919   48.6368  131.1111 C   0  0  0  0  0  0  0  0  0  0  0  0
    9.1679   49.6451  130.4266 O   0  0  0  0  0  0  0  0  0  0  0  0
    6.4116   49.5623  129.0569 O   0  0  0  0  0  0  0  0  0  0  0  0
    7.1237   48.5241  128.5046 C   0  0  0  0  0  0  0  0  0  0  0  0
    7.4952   48.6070  127.3163 O   0  0  0  0  0  0  0  0  0  0  0  0
    5.4813   49.7879  128.7685 H   0  0  0  0  0  0  0  0  0  0  0  0
   11.9703   45.7643  133.4482 C   0  0  0  0  0  0  0  0  0  0  0  0
   12.7114   46.6251  134.3028 N   0  0  0  0  0  0  0  0  0  0  0  0
   13.9804   47.1868  134.1942 C   0  0  0  0  0  0  0  0  0  0  0  0
   14.7281   47.0009  133.2392 O   0  0  0  0  0  0  0  0  0  0  0  0
   12.1880   46.8858  135.2201 H   0  0  0  0  0  0  0  0  0  0  0  0
   14.4410   48.0464  135.3249 C   0  0  0  0  0  0  0  0  0  0  0  0
   15.1889   47.2012  136.3656 C   0  0  0  0  0  0  0  0  0  0  0  0
   15.1258   48.0504  137.6071 C   0  0  0  0  0  0  0  0  0  0  0  0
   13.9891   49.0396  137.3563 C   0  0  0  0  0  0  0  0  0  0  0  0
   13.3844   48.6703  136.0921 N   0  0  0  0  0  0  0  0  0  0  0  0
   12.4864   48.2272  136.1208 H   0  0  0  0  0  0  0  0  0  0  0  0
   11.5334   44.4720  133.8957 C   0  0  0  0  0  0  0  0  0  0  0  0
   10.5735   43.6665  133.1046 C   0  0  0  0  0  0  0  0  0  0  0  0
   10.8537   42.9831  131.9439 C   0  0  0  0  0  0  0  0  0  0  0  0
    9.8950   42.3089  131.1781 C   0  0  0  0  0  0  0  0  0  0  0  0
    8.5869   42.3405  131.6400 C   0  0  0  0  0  0  0  0  0  0  0  0
    8.2600   43.0093  132.7967 C   0  0  0  0  0  0  0  0  0  0  0  0
    9.2305   43.6553  133.5136 C   0  0  0  0  0  0  0  0  0  0  0  0
 15 16  1  0  0  0
 16 17  2  0  0  0
 16  8  1  0  0  0
  8  9  1  0  0  0
  9 10  1  0  0  0
 10 11  1  0  0  0
 11 12  1  0  0  0
 12 13  1  0  0  0
 13 14  2  0  0  0
 13  1  1  0  0  0
  1  2  1  0  0  0
  2  3  1  0  0  0
  3  4  1  0  0  0
  4  5  1  0  0  0
  5  6  1  0  0  0
  6  7  2  0  0  0
  6 19  1  0  0  0
 19 30  1  0  0  0
 30 31  1  0  0  0
 31 32  2  0  0  0
 32 33  1  0  0  0
 33 34  2  0  0  0
 34 35  1  0  0  0
 35 36  2  0  0  0
 19 20  1  0  0  0
 20 21  1  0  0  0
 21 22  2  0  0  0
 21 24  1  0  0  0
 24 25  1  0  0  0
 25 26  1  0  0  0
 26 27  1  0  0  0
 27 28  1  0  0  0
 12  8  1  0  0  0
  5  1  1  0  0  0
 36 31  1  0  0  0
 28 24  1  0  0  0
 15 18  1  0  0  0
 20 23  1  0  0  0
 28 29  1  0  0  0
M  END
> <minimizedAffinity>
11.92597

> <CNNscore>
0.4891305864

> <CNNaffinity>
7.3943090439

> <CNN_VS>
3.6167826653

> <CNNaffinity_variance>
0.3638256192

$$$$
[H]OC(=O)[C@@]1([H])N(C(=O)[C@@]2([H])N(C(=O)[C@@]([H])(N([H])C(=O)[C@@]3([H])N([H])C([H])([H])C([H])([H])C3([H])[H])C([H])([H])c3c([H])c([H])c([H])c([H])c3[H])C([H])([H])C([H])([H])C2([H])[H])C([H])([H])C([H])([H])C1([H])[H]


 36 39  0  0  0  0  0  0  0  0999 V2000
    8.8130   49.3029  132.1774 C   0  0  0  0  0  0  0  0  0  0  0  0
    9.8581   50.0028  133.0961 C   0  0  0  0  0  0  0  0  0  0  0  0
   10.1804   48.9051  134.0565 C   0  0  0  0  0  0  0  0  0  0  0  0
    9.5092   47.6409  133.4821 C   0  0  0  0  0  0  0  0  0  0  0  0
    9.4840   48.0943  132.0138 N   0  0  0  0  0  0  0  0  0  0  0  0
   10.1757   47.2915  131.0369 C   0  0  0  0  0  0  0  0  0  0  0  0
   10.3293   47.7662  129.8735 O   0  0  0  0  0  0  0  0  0  0  0  0
    6.9280   50.2584  128.9488 C   0  0  0  0  0  0  0  0  0  0  0  0
    5.5488   49.5745  128.9205 C   0  0  0  0  0  0  0  0  0  0  0  0
    6.0307   48.1244  129.0960 C   0  0  0  0  0  0  0  0  0  0  0  0
    7.1437   48.2517  130.0821 C   0  0  0  0  0  0  0  0  0  0  0  0
    7.5486   49.6749  130.0933 N   0  0  0  0  0  0  0  0  0  0  0  0
    8.4281   50.1956  131.1150 C   0  0  0  0  0  0  0  0  0  0  0  0
    8.8365   51.3761  131.0822 O   0  0  0  0  0  0  0  0  0  0  0  0
    7.0885   52.3340  127.6978 O   0  0  0  0  0  0  0  0  0  0  0  0
    6.7916   51.7013  128.8816 C   0  0  0  0  0  0  0  0  0  0  0  0
    6.4139   52.3828  129.8561 O   0  0  0  0  0  0  0  0  0  0  0  0
    7.8776   52.9394  127.5963 H   0  0  0  0  0  0  0  0  0  0  0  0
   10.7125   45.9684  131.4349 C   0  0  0  0  0  0  0  0  0  0  0  0
   10.3816   44.9856  130.4628 N   0  0  0  0  0  0  0  0  0  0  0  0
    9.5413   43.8765  130.5009 C   0  0  0  0  0  0  0  0  0  0  0  0
    8.8909   43.5483  131.4884 O   0  0  0  0  0  0  0  0  0  0  0  0
   10.8904   45.1240  129.5113 H   0  0  0  0  0  0  0  0  0  0  0  0
    9.4573   43.0460  129.2630 C   0  0  0  0  0  0  0  0  0  0  0  0
   10.7901   43.0883  128.5022 C   0  0  0  0  0  0  0  0  0  0  0  0
   10.4033   42.6709  127.1084 C   0  0  0  0  0  0  0  0  0  0  0  0
    8.8925   42.8839  127.0332 C   0  0  0  0  0  0  0  0  0  0  0  0
    8.4940   43.4998  128.2830 N   0  0  0  0  0  0  0  0  0  0  0  0
    8.2513   44.4715  128.2631 H   0  0  0  0  0  0  0  0  0  0  0  0
   11.8826   45.8345  132.2560 C   0  0  0  0  0  0  0  0  0  0  0  0
   11.8539   45.0574  133.5175 C   0  0  0  0  0  0  0  0  0  0  0  0
   12.8795   44.2893  134.0187 C   0  0  0  0  0  0  0  0  0  0  0  0
   12.7784   43.4973  135.1688 C   0  0  0  0  0  0  0  0  0  0  0  0
   11.5597   43.5064  135.8322 C   0  0  0  0  0  0  0  0  0  0  0  0
   10.5067   44.2607  135.3693 C   0  0  0  0  0  0  0  0  0  0  0  0
   10.6507   45.0202  134.2399 C   0  0  0  0  0  0  0  0  0  0  0  0
 15 16  1  0  0  0
 16 17  2  0  0  0
 16  8  1  0  0  0
  8  9  1  0  0  0
  9 10  1  0  0  0
 10 11  1  0  0  0
 11 12  1  0  0  0
 12 13  1  0  0  0
 13 14  2  0  0  0
 13  1  1  0  0  0
  1  2  1  0  0  0
  2  3  1  0  0  0
  3  4  1  0  0  0
  4  5  1  0  0  0
  5  6  1  0  0  0
  6  7  2  0  0  0
  6 19  1  0  0  0
 19 30  1  0  0  0
 30 31  1  0  0  0
 31 32  2  0  0  0
 32 33  1  0  0  0
 33 34  2  0  0  0
 34 35  1  0  0  0
 35 36  2  0  0  0
 19 20  1  0  0  0
 20 21  1  0  0  0
 21 22  2  0  0  0
 21 24  1  0  0  0
 24 25  1  0  0  0
 25 26  1  0  0  0
 26 27  1  0  0  0
 27 28  1  0  0  0
 12  8  1  0  0  0
  5  1  1  0  0  0
 36 31  1  0  0  0
 28 24  1  0  0  0
 15 18  1  0  0  0
 20 23  1  0  0  0
 28 29  1  0  0  0
M  END
> <minimizedAffinity>
3.90830

> <CNNscore>
0.4833233654

> <CNNaffinity>
7.5762343407

> <CNN_VS>
3.6617710590

> <CNNaffinity_variance>
0.6714213490

$$$$
[H]OC(=O)[C@@]1([H])N(C(=O)[C@@]2([H])N(C(=O)[C@@]([H])(N([H])C(=O)[C@@]3([H])N([H])C([H])([H])C([H])([H])C3([H])[H])C([H])([H])c3c([H])c([H])c([H])c([H])c3[H])C([H])([H])C([H])([H])C2([H])[H])C([H])([H])C([H])([H])C1([H])[H]


 36 39  0  0  0  0  0  0  0  0999 V2000
    8.5137   46.5322  128.9835 C   0  0  0  0  0  0  0  0  0  0  0  0
    7.8304   45.5004  128.0376 C   0  0  0  0  0  0  0  0  0  0  0  0
    8.8466   44.4056  128.0211 C   0  0  0  0  0  0  0  0  0  0  0  0
    9.8726   44.7753  129.1116 C   0  0  0  0  0  0  0  0  0  0  0  0
    8.9323   45.6398  129.9664 N   0  0  0  0  0  0  0  0  0  0  0  0
    8.7006   45.2524  131.3352 C   0  0  0  0  0  0  0  0  0  0  0  0
    7.7771   45.8368  131.9739 O   0  0  0  0  0  0  0  0  0  0  0  0
    7.4237   49.8323  130.6600 C   0  0  0  0  0  0  0  0  0  0  0  0
    8.6578   50.6972  130.9754 C   0  0  0  0  0  0  0  0  0  0  0  0
    9.4311   49.6619  131.8098 C   0  0  0  0  0  0  0  0  0  0  0  0
    9.1762   48.3817  131.0865 C   0  0  0  0  0  0  0  0  0  0  0  0
    8.0005   48.6053  130.2162 N   0  0  0  0  0  0  0  0  0  0  0  0
    7.6345   47.6534  129.1922 C   0  0  0  0  0  0  0  0  0  0  0  0
    6.5977   47.7981  128.5100 O   0  0  0  0  0  0  0  0  0  0  0  0
    5.2352   50.0424  129.6279 O   0  0  0  0  0  0  0  0  0  0  0  0
    6.5084   50.5373  129.7822 C   0  0  0  0  0  0  0  0  0  0  0  0
    6.8359   51.5729  129.1682 O   0  0  0  0  0  0  0  0  0  0  0  0
    4.9133   49.6489  128.7671 H   0  0  0  0  0  0  0  0  0  0  0  0
    9.5165   44.1668  131.9292 C   0  0  0  0  0  0  0  0  0  0  0  0
   10.7085   43.9745  131.1791 N   0  0  0  0  0  0  0  0  0  0  0  0
   12.0518   44.1658  131.4899 C   0  0  0  0  0  0  0  0  0  0  0  0
   12.4479   44.5734  132.5775 O   0  0  0  0  0  0  0  0  0  0  0  0
   10.5341   43.6183  130.1661 H   0  0  0  0  0  0  0  0  0  0  0  0
   13.0459   43.8673  130.4167 C   0  0  0  0  0  0  0  0  0  0  0  0
   14.2394   44.8279  130.5145 C   0  0  0  0  0  0  0  0  0  0  0  0
   14.8520   44.7554  129.1411 C   0  0  0  0  0  0  0  0  0  0  0  0
   13.7558   44.1813  128.2453 C   0  0  0  0  0  0  0  0  0  0  0  0
   12.5667   44.0598  129.0648 N   0  0  0  0  0  0  0  0  0  0  0  0
   11.8270   44.7167  128.9069 H   0  0  0  0  0  0  0  0  0  0  0  0
    9.4612   43.8475  133.3279 C   0  0  0  0  0  0  0  0  0  0  0  0
    8.6843   42.6868  133.8232 C   0  0  0  0  0  0  0  0  0  0  0  0
    9.1807   41.6340  134.5568 C   0  0  0  0  0  0  0  0  0  0  0  0
    8.4305   40.5113  134.9267 C   0  0  0  0  0  0  0  0  0  0  0  0
    7.1036   40.4816  134.5218 C   0  0  0  0  0  0  0  0  0  0  0  0
    6.5633   41.5125  133.7888 C   0  0  0  0  0  0  0  0  0  0  0  0
    7.3346   42.5909  133.4492 C   0  0  0  0  0  0  0  0  0  0  0  0
 15 16  1  0  0  0
 16 17  2  0  0  0
 16  8  1  0  0  0
  8  9  1  0  0  0
  9 10  1  0  0  0
 10 11  1  0  0  0
 11 12  1  0  0  0
 12 13  1  0  0  0
 13 14  2  0  0  0
 13  1  1  0  0  0
  1  2  1  0  0  0
  2  3  1  0  0  0
  3  4  1  0  0  0
  4  5  1  0  0  0
  5  6  1  0  0  0
  6  7  2  0  0  0
  6 19  1  0  0  0
 19 30  1  0  0  0
 30 31  1  0  0  0
 31 32  2  0  0  0
 32 33  1  0  0  0
 33 34  2  0  0  0
 34 35  1  0  0  0
 35 36  2  0  0  0
 19 20  1  0  0  0
 20 21  1  0  0  0
 21 22  2  0  0  0
 21 24  1  0  0  0
 24 25  1  0  0  0
 25 26  1  0  0  0
 26 27  1  0  0  0
 27 28  1  0  0  0
 12  8  1  0  0  0
  5  1  1  0  0  0
 36 31  1  0  0  0
 28 24  1  0  0  0
 15 18  1  0  0  0
 20 23  1  0  0  0
 28 29  1  0  0  0
M  END
> <minimizedAffinity>
12.98819

> <CNNscore>
0.4805664122

> <CNNaffinity>
7.9505605698

> <CNN_VS>
3.8207724094

> <CNNaffinity_variance>
3.1126928329

$$$$
[H]OC(=O)[C@@]1([H])N(C(=O)[C@@]2([H])N(C(=O)[C@@]([H])(N([H])C(=O)[C@@]3([H])N([H])C([H])([H])C([H])([H])C3([H])[H])C([H])([H])c3c([H])c([H])c([H])c([H])c3[H])C([H])([H])C([H])([H])C2([H])[H])C([H])([H])C([H])([H])C1([H])[H]


 36 39  0  0  0  0  0  0  0  0999 V2000
    8.4801   47.9990  132.1203 C   0  0  0  0  0  0  0  0  0  0  0  0
    8.6974   48.6010  133.5403 C   0  0  0  0  0  0  0  0  0  0  0  0
    9.0069   47.3723  134.3314 C   0  0  0  0  0  0  0  0  0  0  0  0
    9.1808   46.2440  133.2944 C   0  0  0  0  0  0  0  0  0  0  0  0
    9.5751   47.1397  132.1093 N   0  0  0  0  0  0  0  0  0  0  0  0
   10.8565   46.9255  131.4852 C   0  0  0  0  0  0  0  0  0  0  0  0
   11.2670   47.7856  130.6520 O   0  0  0  0  0  0  0  0  0  0  0  0
    6.8462   49.5754  129.0002 C   0  0  0  0  0  0  0  0  0  0  0  0
    5.4017   49.0655  128.8459 C   0  0  0  0  0  0  0  0  0  0  0  0
    5.7112   47.5588  128.8394 C   0  0  0  0  0  0  0  0  0  0  0  0
    6.7904   47.4279  129.8618 C   0  0  0  0  0  0  0  0  0  0  0  0
    7.3508   48.7811  130.0725 N   0  0  0  0  0  0  0  0  0  0  0  0
    8.2406   49.0600  131.1766 C   0  0  0  0  0  0  0  0  0  0  0  0
    8.7792   50.1794  131.3114 O   0  0  0  0  0  0  0  0  0  0  0  0
    6.5800   51.5825  130.3418 O   0  0  0  0  0  0  0  0  0  0  0  0
    6.8744   51.0210  129.1220 C   0  0  0  0  0  0  0  0  0  0  0  0
    7.1575   51.7668  128.1627 O   0  0  0  0  0  0  0  0  0  0  0  0
    5.7519   52.1201  130.4990 H   0  0  0  0  0  0  0  0  0  0  0  0
   11.6588   45.7387  131.8660 C   0  0  0  0  0  0  0  0  0  0  0  0
   12.5997   45.4279  130.8469 N   0  0  0  0  0  0  0  0  0  0  0  0
   12.4873   44.7226  129.6520 C   0  0  0  0  0  0  0  0  0  0  0  0
   11.4441   44.2092  129.2597 O   0  0  0  0  0  0  0  0  0  0  0  0
   13.5998   45.8071  131.0456 H   0  0  0  0  0  0  0  0  0  0  0  0
   13.7243   44.5826  128.8278 C   0  0  0  0  0  0  0  0  0  0  0  0
   13.4657   43.6535  127.6333 C   0  0  0  0  0  0  0  0  0  0  0  0
   14.8496   43.2183  127.2308 C   0  0  0  0  0  0  0  0  0  0  0  0
   15.7277   43.5059  128.4474 C   0  0  0  0  0  0  0  0  0  0  0  0
   14.8448   43.9628  129.5019 N   0  0  0  0  0  0  0  0  0  0  0  0
   14.6606   43.3309  130.2571 H   0  0  0  0  0  0  0  0  0  0  0  0
   11.9100   45.3944  133.2369 C   0  0  0  0  0  0  0  0  0  0  0  0
   11.3031   44.1909  133.8529 C   0  0  0  0  0  0  0  0  0  0  0  0
   10.4921   43.2784  133.2186 C   0  0  0  0  0  0  0  0  0  0  0  0
    9.8649   42.2044  133.8615 C   0  0  0  0  0  0  0  0  0  0  0  0
   10.0934   42.0676  135.2233 C   0  0  0  0  0  0  0  0  0  0  0  0
   10.8986   42.9547  135.8991 C   0  0  0  0  0  0  0  0  0  0  0  0
   11.4915   43.9908  135.2296 C   0  0  0  0  0  0  0  0  0  0  0  0
 15 16  1  0  0  0
 16 17  2  0  0  0
 16  8  1  0  0  0
  8  9  1  0  0  0
  9 10  1  0  0  0
 10 11  1  0  0  0
 11 12  1  0  0  0
 12 13  1  0  0  0
 13 14  2  0  0  0
 13  1  1  0  0  0
  1  2  1  0  0  0
  2  3  1  0  0  0
  3  4  1  0  0  0
  4  5  1  0  0  0
  5  6  1  0  0  0
  6  7  2  0  0  0
  6 19  1  0  0  0
 19 30  1  0  0  0
 30 31  1  0  0  0
 31 32  2  0  0  0
 32 33  1  0  0  0
 33 34  2  0  0  0
 34 35  1  0  0  0
 35 36  2  0  0  0
 19 20  1  0  0  0
 20 21  1  0  0  0
 21 22  2  0  0  0
 21 24  1  0  0  0
 24 25  1  0  0  0
 25 26  1  0  0  0
 26 27  1  0  0  0
 27 28  1  0  0  0
 12  8  1  0  0  0
  5  1  1  0  0  0
 36 31  1  0  0  0
 28 24  1  0  0  0
 15 18  1  0  0  0
 20 23  1  0  0  0
 28 29  1  0  0  0
M  END
> <minimizedAffinity>
11.41284

> <CNNscore>
0.4753831923

> <CNNaffinity>
7.8269720078

> <CNN_VS>
3.7208108902

> <CNNaffinity_variance>
2.0790014267

$$$$
[H]OC(=O)[C@@]1([H])N(C(=O)[C@@]2([H])N(C(=O)[C@@]([H])(N([H])C(=O)[C@@]3([H])N([H])C([H])([H])C([H])([H])C3([H])[H])C([H])([H])c3c([H])c([H])c([H])c([H])c3[H])C([H])([H])C([H])([H])C2([H])[H])C([H])([H])C([H])([H])C1([H])[H]


 36 39  0  0  0  0  0  0  0  0999 V2000
    8.4973   44.6955  131.2078 C   0  0  0  0  0  0  0  0  0  0  0  0
    7.0913   44.6451  130.5396 C   0  0  0  0  0  0  0  0  0  0  0  0
    6.5812   46.0178  130.8344 C   0  0  0  0  0  0  0  0  0  0  0  0
    7.7852   46.7939  131.4060 C   0  0  0  0  0  0  0  0  0  0  0  0
    8.8837   45.9489  130.7416 N   0  0  0  0  0  0  0  0  0  0  0  0
    9.8077   46.6045  129.8505 C   0  0  0  0  0  0  0  0  0  0  0  0
   10.5763   45.8831  129.1497 O   0  0  0  0  0  0  0  0  0  0  0  0
   11.4888   42.2743  131.4886 C   0  0  0  0  0  0  0  0  0  0  0  0
   12.1519   42.4122  132.8712 C   0  0  0  0  0  0  0  0  0  0  0  0
   12.4247   43.9252  132.8225 C   0  0  0  0  0  0  0  0  0  0  0  0
   11.2037   44.4709  132.1603 C   0  0  0  0  0  0  0  0  0  0  0  0
   10.5356   43.3358  131.4859 N   0  0  0  0  0  0  0  0  0  0  0  0
    9.1949   43.4602  130.9606 C   0  0  0  0  0  0  0  0  0  0  0  0
    8.6583   42.5312  130.3201 O   0  0  0  0  0  0  0  0  0  0  0  0
   11.5113   39.9197  132.0840 O   0  0  0  0  0  0  0  0  0  0  0  0
   11.0293   40.9158  131.2682 C   0  0  0  0  0  0  0  0  0  0  0  0
   10.2144   40.6236  130.3697 O   0  0  0  0  0  0  0  0  0  0  0  0
   12.1188   39.1996  131.7496 H   0  0  0  0  0  0  0  0  0  0  0  0
    9.7985   48.0838  129.7571 C   0  0  0  0  0  0  0  0  0  0  0  0
    8.5208   48.5469  129.3404 N   0  0  0  0  0  0  0  0  0  0  0  0
    7.8012   49.7013  129.6354 C   0  0  0  0  0  0  0  0  0  0  0  0
    8.2095   50.5867  130.3806 O   0  0  0  0  0  0  0  0  0  0  0  0
    8.0055   47.8622  128.6703 H   0  0  0  0  0  0  0  0  0  0  0  0
    6.4521   49.8382  129.0106 C   0  0  0  0  0  0  0  0  0  0  0  0
    5.4692   50.4782  130.0012 C   0  0  0  0  0  0  0  0  0  0  0  0
    4.1236   50.0851  129.4523 C   0  0  0  0  0  0  0  0  0  0  0  0
    4.4010   48.9029  128.5253 C   0  0  0  0  0  0  0  0  0  0  0  0
    5.8102   48.5907  128.6556 N   0  0  0  0  0  0  0  0  0  0  0  0
    6.0556   47.7632  129.1639 H   0  0  0  0  0  0  0  0  0  0  0  0
   10.6589   48.9053  130.5608 C   0  0  0  0  0  0  0  0  0  0  0  0
   10.7761   48.6982  132.0235 C   0  0  0  0  0  0  0  0  0  0  0  0
   11.3863   47.6325  132.6439 C   0  0  0  0  0  0  0  0  0  0  0  0
   11.3945   47.4294  134.0292 C   0  0  0  0  0  0  0  0  0  0  0  0
   10.7449   48.3776  134.8066 C   0  0  0  0  0  0  0  0  0  0  0  0
   10.1229   49.4607  134.2305 C   0  0  0  0  0  0  0  0  0  0  0  0
   10.1398   49.6189  132.8711 C   0  0  0  0  0  0  0  0  0  0  0  0
 15 16  1  0  0  0
 16 17  2  0  0  0
 16  8  1  0  0  0
  8  9  1  0  0  0
  9 10  1  0  0  0
 10 11  1  0  0  0
 11 12  1  0  0  0
 12 13  1  0  0  0
 13 14  2  0  0  0
 13  1  1  0  0  0
  1  2  1  0  0  0
  2  3  1  0  0  0
  3  4  1  0  0  0
  4  5  1  0  0  0
  5  6  1  0  0  0
  6  7  2  0  0  0
  6 19  1  0  0  0
 19 30  1  0  0  0
 30 31  1  0  0  0
 31 32  2  0  0  0
 32 33  1  0  0  0
 33 34  2  0  0  0
 34 35  1  0  0  0
 35 36  2  0  0  0
 19 20  1  0  0  0
 20 21  1  0  0  0
 21 22  2  0  0  0
 21 24  1  0  0  0
 24 25  1  0  0  0
 25 26  1  0  0  0
 26 27  1  0  0  0
 27 28  1  0  0  0
 12  8  1  0  0  0
  5  1  1  0  0  0
 36 31  1  0  0  0
 28 24  1  0  0  0
 15 18  1  0  0  0
 20 23  1  0  0  0
 28 29  1  0  0  0
M  END
> <minimizedAffinity>
9.13416

> <CNNscore>
0.4687935710

> <CNNaffinity>
7.3652305603

> <CNN_VS>
3.4527726173

> <CNNaffinity_variance>
0.7582756877

$$$$
[H]O[C@]1([H])[C@@]([H])(C([H])([H])OS(=O)(=O)N([H])C(=O)[C@@]([H])(N([H])[H])C([H])([H])C([H])(C([H])([H])[H])C([H])([H])[H])O[C@@]([H])(n2c([H])nc3c(N([H])[H])nc([H])nc32)[C@]1([H])O[H]


 38 40  0  0  0  0  0  0  0  0999 V2000
   11.8252   43.5423  130.5514 C   0  0  0  0  0  0  0  0  0  0  0  0
   10.7302   43.7548  129.7339 O   0  0  0  0  0  0  0  0  0  0  0  0
   10.5336   45.1115  129.5633 C   0  0  0  0  0  0  0  0  0  0  0  0
   11.3248   45.8004  130.6719 C   0  0  0  0  0  0  0  0  0  0  0  0
   11.6369   47.1053  130.3923 O   0  0  0  0  0  0  0  0  0  0  0  0
   12.5541   44.8750  130.6359 C   0  0  0  0  0  0  0  0  0  0  0  0
   13.2491   45.1025  129.4714 O   0  0  0  0  0  0  0  0  0  0  0  0
   11.1501   47.7052  131.0302 H   0  0  0  0  0  0  0  0  0  0  0  0
   13.0416   44.3853  128.8205 H   0  0  0  0  0  0  0  0  0  0  0  0
    9.1594   45.4986  129.5170 N   0  0  0  0  0  0  0  0  0  0  0  0
    8.0862   44.7169  129.4361 C   0  0  0  0  0  0  0  0  0  0  0  0
    6.9605   45.4834  129.4143 N   0  0  0  0  0  0  0  0  0  0  0  0
    7.3204   46.7906  129.4837 C   0  0  0  0  0  0  0  0  0  0  0  0
    6.6094   47.9699  129.4990 C   0  0  0  0  0  0  0  0  0  0  0  0
    5.1935   47.9865  129.4254 N   0  0  0  0  0  0  0  0  0  0  0  0
    7.3096   49.1248  129.5791 N   0  0  0  0  0  0  0  0  0  0  0  0
    8.6467   49.1333  129.6423 C   0  0  0  0  0  0  0  0  0  0  0  0
    9.3219   47.9741  129.6254 N   0  0  0  0  0  0  0  0  0  0  0  0
    8.7071   46.7797  129.5478 C   0  0  0  0  0  0  0  0  0  0  0  0
    4.6221   48.1702  130.2640 H   0  0  0  0  0  0  0  0  0  0  0  0
    4.7397   47.8050  128.4903 H   0  0  0  0  0  0  0  0  0  0  0  0
   11.3161   43.0748  131.8959 C   0  0  0  0  0  0  0  0  0  0  0  0
    9.9655   42.7191  131.8688 O   0  0  0  0  0  0  0  0  0  0  0  0
    9.2066   43.0080  133.3118 S   0  0  0  0  0  0  0  0  0  0  0  0
    7.7730   42.5528  133.3166 O   0  0  0  0  0  0  0  0  0  0  0  0
    9.9051   42.1754  134.3803 O   0  0  0  0  0  0  0  0  0  0  0  0
    8.5115   45.6857  133.1081 C   0  0  0  0  0  0  0  0  0  0  0  0
    7.6180   45.3920  132.2806 O   0  0  0  0  0  0  0  0  0  0  0  0
    9.3341   44.6861  133.6812 N   0  0  0  0  0  0  0  0  0  0  0  0
   10.0575   44.9685  134.3724 H   0  0  0  0  0  0  0  0  0  0  0  0
    8.7160   47.1057  133.4990 C   0  0  0  0  0  0  0  0  0  0  0  0
    8.1261   47.2761  134.8047 N   0  0  0  0  0  0  0  0  0  0  0  0
    7.1050   47.2257  134.8402 H   0  0  0  0  0  0  0  0  0  0  0  0
    8.6449   46.8037  135.5621 H   0  0  0  0  0  0  0  0  0  0  0  0
   10.1507   47.4547  133.3994 C   0  0  0  0  0  0  0  0  0  0  0  0
   12.1064   46.0750  134.0710 C   0  0  0  0  0  0  0  0  0  0  0  0
   10.9825   46.9770  134.5541 C   0  0  0  0  0  0  0  0  0  0  0  0
   11.5657   48.0427  135.4124 C   0  0  0  0  0  0  0  0  0  0  0  0
 36 37  1  0  0  0
 37 38  1  0  0  0
 37 35  1  0  0  0
 35 31  1  0  0  0
 31 32  1  0  0  0
 31 27  1  0  0  0
 27 28  2  0  0  0
 27 29  1  0  0  0
 29 24  1  0  0  0
 24 25  2  0  0  0
 24 26  2  0  0  0
 24 23  1  0  0  0
 23 22  1  0  0  0
 22  1  1  0  0  0
  1  2  1  0  0  0
  2  3  1  0  0  0
  3  4  1  0  0  0
  4  5  1  0  0  0
  4  6  1  0  0  0
  6  7  1  0  0  0
  3 10  1  0  0  0
 10 11  1  0  0  0
 11 12  2  0  0  0
 12 13  1  0  0  0
 13 14  2  0  0  0
 14 15  1  0  0  0
 14 16  1  0  0  0
 16 17  2  0  0  0
 17 18  1  0  0  0
 18 19  2  0  0  0
  6  1  1  0  0  0
 19 10  1  0  0  0
 19 13  1  0  0  0
 32 33  1  0  0  0
 32 34  1  0  0  0
 29 30  1  0  0  0
  5  8  1  0  0  0
  7  9  1  0  0  0
 15 20  1  0  0  0
 15 21  1  0  0  0
M  END
> <minimizedAffinity>
0.66144

> <CNNscore>
0.3804912567

> <CNNaffinity>
7.3911719322

> <CNN_VS>
2.8122763634

> <CNNaffinity_variance>
2.0997412205

$$$$
[H]O[C@]1([H])[C@@]([H])(C([H])([H])OS(=O)(=O)N([H])C(=O)[C@@]([H])(N([H])[H])C([H])([H])C([H])(C([H])([H])[H])C([H])([H])[H])O[C@@]([H])(n2c([H])nc3c(N([H])[H])nc([H])nc32)[C@]1([H])O[H]


 38 40  0  0  0  0  0  0  0  0999 V2000
    7.4322   43.8801  131.1668 C   0  0  0  0  0  0  0  0  0  0  0  0
    8.1167   43.9408  129.9667 O   0  0  0  0  0  0  0  0  0  0  0  0
    9.1295   43.0014  129.9610 C   0  0  0  0  0  0  0  0  0  0  0  0
    9.3416   42.5931  131.4164 C   0  0  0  0  0  0  0  0  0  0  0  0
    9.9418   41.3695  131.5602 O   0  0  0  0  0  0  0  0  0  0  0  0
    7.8596   42.5800  131.8315 C   0  0  0  0  0  0  0  0  0  0  0  0
    7.2358   41.5165  131.2225 O   0  0  0  0  0  0  0  0  0  0  0  0
   10.8488   41.4925  131.9677 H   0  0  0  0  0  0  0  0  0  0  0  0
    6.7223   41.8418  130.4405 H   0  0  0  0  0  0  0  0  0  0  0  0
   10.3238   43.4379  129.3104 N   0  0  0  0  0  0  0  0  0  0  0  0
   10.5606   43.5390  128.0053 C   0  0  0  0  0  0  0  0  0  0  0  0
   11.8284   43.9938  127.8025 N   0  0  0  0  0  0  0  0  0  0  0  0
   12.4203   44.1903  129.0084 C   0  0  0  0  0  0  0  0  0  0  0  0
   13.6674   44.6317  129.3914 C   0  0  0  0  0  0  0  0  0  0  0  0
   14.6559   44.9875  128.4392 N   0  0  0  0  0  0  0  0  0  0  0  0
   13.9267   44.7091  130.7170 N   0  0  0  0  0  0  0  0  0  0  0  0
   13.0112   44.3717  131.6333 C   0  0  0  0  0  0  0  0  0  0  0  0
   11.8020   43.9431  131.2407 N   0  0  0  0  0  0  0  0  0  0  0  0
   11.4583   43.8354  129.9442 C   0  0  0  0  0  0  0  0  0  0  0  0
   14.8744   45.9769  128.2476 H   0  0  0  0  0  0  0  0  0  0  0  0
   15.1617   44.2133  127.9311 H   0  0  0  0  0  0  0  0  0  0  0  0
    7.8119   45.0973  131.9790 C   0  0  0  0  0  0  0  0  0  0  0  0
    8.3366   46.1279  131.1955 O   0  0  0  0  0  0  0  0  0  0  0  0
    7.2203   46.7545  130.1451 S   0  0  0  0  0  0  0  0  0  0  0  0
    7.4837   46.3659  128.7162 O   0  0  0  0  0  0  0  0  0  0  0  0
    5.8645   46.1503  130.4915 O   0  0  0  0  0  0  0  0  0  0  0  0
    7.4695   49.3827  129.2935 C   0  0  0  0  0  0  0  0  0  0  0  0
    7.7765   48.9831  128.1466 O   0  0  0  0  0  0  0  0  0  0  0  0
    7.1792   48.4666  130.3332 N   0  0  0  0  0  0  0  0  0  0  0  0
    6.9180   48.8374  131.2687 H   0  0  0  0  0  0  0  0  0  0  0  0
    7.4071   50.8416  129.5735 C   0  0  0  0  0  0  0  0  0  0  0  0
    6.0194   51.1744  129.7866 N   0  0  0  0  0  0  0  0  0  0  0  0
    5.4191   51.1246  128.9598 H   0  0  0  0  0  0  0  0  0  0  0  0
    5.6321   50.8043  130.6694 H   0  0  0  0  0  0  0  0  0  0  0  0
    8.3203   51.1810  130.6875 C   0  0  0  0  0  0  0  0  0  0  0  0
   10.1830   49.5487  130.4751 C   0  0  0  0  0  0  0  0  0  0  0  0
    8.9963   49.9956  131.3129 C   0  0  0  0  0  0  0  0  0  0  0  0
    9.4502   50.1797  132.7174 C   0  0  0  0  0  0  0  0  0  0  0  0
 36 37  1  0  0  0
 37 38  1  0  0  0
 37 35  1  0  0  0
 35 31  1  0  0  0
 31 32  1  0  0  0
 31 27  1  0  0  0
 27 28  2  0  0  0
 27 29  1  0  0  0
 29 24  1  0  0  0
 24 25  2  0  0  0
 24 26  2  0  0  0
 24 23  1  0  0  0
 23 22  1  0  0  0
 22  1  1  0  0  0
  1  2  1  0  0  0
  2  3  1  0  0  0
  3  4  1  0  0  0
  4  5  1  0  0  0
  4  6  1  0  0  0
  6  7  1  0  0  0
  3 10  1  0  0  0
 10 11  1  0  0  0
 11 12  2  0  0  0
 12 13  1  0  0  0
 13 14  2  0  0  0
 14 15  1  0  0  0
 14 16  1  0  0  0
 16 17  2  0  0  0
 17 18  1  0  0  0
 18 19  2  0  0  0
  6  1  1  0  0  0
 19 10  1  0  0  0
 19 13  1  0  0  0
 32 33  1  0  0  0
 32 34  1  0  0  0
 29 30  1  0  0  0
  5  8  1  0  0  0
  7  9  1  0  0  0
 15 20  1  0  0  0
 15 21  1  0  0  0
M  END
> <minimizedAffinity>
3.75184

> <CNNscore>
0.3572977483

> <CNNaffinity>
6.4807715416

> <CNN_VS>
2.3155651093

> <CNNaffinity_variance>
0.3066677153

$$$$
[H]O[C@]1([H])[C@@]([H])(C([H])([H])OS(=O)(=O)N([H])C(=O)[C@@]([H])(N([H])[H])C([H])([H])C([H])(C([H])([H])[H])C([H])([H])[H])O[C@@]([H])(n2c([H])nc3c(N([H])[H])nc([H])nc32)[C@]1([H])O[H]


 38 40  0  0  0  0  0  0  0  0999 V2000
    7.5261   45.4783  130.6249 C   0  0  0  0  0  0  0  0  0  0  0  0
    7.1322   46.7754  130.8981 O   0  0  0  0  0  0  0  0  0  0  0  0
    7.7688   47.6463  130.0352 C   0  0  0  0  0  0  0  0  0  0  0  0
    8.9433   46.8747  129.4393 C   0  0  0  0  0  0  0  0  0  0  0  0
    9.3873   47.3870  128.2483 O   0  0  0  0  0  0  0  0  0  0  0  0
    8.2235   45.5245  129.2735 C   0  0  0  0  0  0  0  0  0  0  0  0
    7.2907   45.6372  128.2695 O   0  0  0  0  0  0  0  0  0  0  0  0
   10.3133   47.7498  128.3696 H   0  0  0  0  0  0  0  0  0  0  0  0
    6.3910   45.7477  128.6691 H   0  0  0  0  0  0  0  0  0  0  0  0
    8.1455   48.8870  130.6344 N   0  0  0  0  0  0  0  0  0  0  0  0
    7.8611   50.1197  130.2234 C   0  0  0  0  0  0  0  0  0  0  0  0
    8.4115   51.0270  131.0772 N   0  0  0  0  0  0  0  0  0  0  0  0
    9.0657   50.3593  132.0620 C   0  0  0  0  0  0  0  0  0  0  0  0
    9.7843   50.7633  133.1651 C   0  0  0  0  0  0  0  0  0  0  0  0
    9.9766   52.1354  133.4668 N   0  0  0  0  0  0  0  0  0  0  0  0
   10.3136   49.8021  133.9566 N   0  0  0  0  0  0  0  0  0  0  0  0
   10.1508   48.5011  133.6872 C   0  0  0  0  0  0  0  0  0  0  0  0
    9.4481   48.1272  132.6072 N   0  0  0  0  0  0  0  0  0  0  0  0
    8.8868   49.0149  131.7662 C   0  0  0  0  0  0  0  0  0  0  0  0
    9.4439   52.5906  134.2234 H   0  0  0  0  0  0  0  0  0  0  0  0
   10.6784   52.6787  132.8962 H   0  0  0  0  0  0  0  0  0  0  0  0
    8.4473   45.0297  131.7365 C   0  0  0  0  0  0  0  0  0  0  0  0
    9.6476   44.4957  131.2616 O   0  0  0  0  0  0  0  0  0  0  0  0
    9.6455   42.8398  131.2585 S   0  0  0  0  0  0  0  0  0  0  0  0
   10.4372   42.2550  132.3958 O   0  0  0  0  0  0  0  0  0  0  0  0
    8.2102   42.3756  131.4762 O   0  0  0  0  0  0  0  0  0  0  0  0
    9.5781   42.5291  128.5029 C   0  0  0  0  0  0  0  0  0  0  0  0
    8.5113   43.1841  128.4539 O   0  0  0  0  0  0  0  0  0  0  0  0
   10.2303   42.2857  129.7356 N   0  0  0  0  0  0  0  0  0  0  0  0
   11.1196   41.7471  129.7337 H   0  0  0  0  0  0  0  0  0  0  0  0
   10.1740   41.9965  127.2490 C   0  0  0  0  0  0  0  0  0  0  0  0
   11.4149   42.7011  127.0355 N   0  0  0  0  0  0  0  0  0  0  0  0
   11.3267   43.6894  126.7864 H   0  0  0  0  0  0  0  0  0  0  0  0
   12.1574   42.4522  127.7084 H   0  0  0  0  0  0  0  0  0  0  0  0
   10.2857   40.5230  127.3299 C   0  0  0  0  0  0  0  0  0  0  0  0
   11.8912   38.8653  126.4059 C   0  0  0  0  0  0  0  0  0  0  0  0
   10.8033   39.8749  126.0787 C   0  0  0  0  0  0  0  0  0  0  0  0
    9.7807   39.2104  125.2270 C   0  0  0  0  0  0  0  0  0  0  0  0
 36 37  1  0  0  0
 37 38  1  0  0  0
 37 35  1  0  0  0
 35 31  1  0  0  0
 31 32  1  0  0  0
 31 27  1  0  0  0
 27 28  2  0  0  0
 27 29  1  0  0  0
 29 24  1  0  0  0
 24 25  2  0  0  0
 24 26  2  0  0  0
 24 23  1  0  0  0
 23 22  1  0  0  0
 22  1  1  0  0  0
  1  2  1  0  0  0
  2  3  1  0  0  0
  3  4  1  0  0  0
  4  5  1  0  0  0
  4  6  1  0  0  0
  6  7  1  0  0  0
  3 10  1  0  0  0
 10 11  1  0  0  0
 11 12  2  0  0  0
 12 13  1  0  0  0
 13 14  2  0  0  0
 14 15  1  0  0  0
 14 16  1  0  0  0
 16 17  2  0  0  0
 17 18  1  0  0  0
 18 19  2  0  0  0
  6  1  1  0  0  0
 19 10  1  0  0  0
 19 13  1  0  0  0
 32 33  1  0  0  0
 32 34  1  0  0  0
 29 30  1  0  0  0
  5  8  1  0  0  0
  7  9  1  0  0  0
 15 20  1  0  0  0
 15 21  1  0  0  0
M  END
> <minimizedAffinity>
15.23965

> <CNNscore>
0.3474942446

> <CNNaffinity>
6.2411084175

> <CNN_VS>
2.1687493324

> <CNNaffinity_variance>
0.4706239104

$$$$
[H]O[C@]1([H])[C@@]([H])(C([H])([H])OS(=O)(=O)N([H])C(=O)[C@@]([H])(N([H])[H])C([H])([H])C([H])(C([H])([H])[H])C([H])([H])[H])O[C@@]([H])(n2c([H])nc3c(N([H])[H])nc([H])nc32)[C@]1([H])O[H]


 38 40  0  0  0  0  0  0  0  0999 V2000
    8.8371   45.0436  133.5479 C   0  0  0  0  0  0  0  0  0  0  0  0
    7.8333   45.8443  133.0343 O   0  0  0  0  0  0  0  0  0  0  0  0
    7.5391   45.4506  131.7433 C   0  0  0  0  0  0  0  0  0  0  0  0
    8.7156   44.5965  131.2786 C   0  0  0  0  0  0  0  0  0  0  0  0
    8.4040   43.7494  130.2474 O   0  0  0  0  0  0  0  0  0  0  0  0
    8.9521   43.8543  132.6060 C   0  0  0  0  0  0  0  0  0  0  0  0
    7.9093   42.9844  132.8219 O   0  0  0  0  0  0  0  0  0  0  0  0
    8.9075   44.0283  129.4273 H   0  0  0  0  0  0  0  0  0  0  0  0
    7.2835   43.3799  133.4801 H   0  0  0  0  0  0  0  0  0  0  0  0
    7.2342   46.5316  130.8609 N   0  0  0  0  0  0  0  0  0  0  0  0
    6.3363   46.5657  129.8801 C   0  0  0  0  0  0  0  0  0  0  0  0
    6.3617   47.7864  129.2764 N   0  0  0  0  0  0  0  0  0  0  0  0
    7.2997   48.5558  129.8858 C   0  0  0  0  0  0  0  0  0  0  0  0
    7.7388   49.8466  129.6917 C   0  0  0  0  0  0  0  0  0  0  0  0
    7.1984   50.6714  128.6727 N   0  0  0  0  0  0  0  0  0  0  0  0
    8.7168   50.3067  130.5055 N   0  0  0  0  0  0  0  0  0  0  0  0
    9.2463   49.5434  131.4693 C   0  0  0  0  0  0  0  0  0  0  0  0
    8.8060   48.2880  131.6424 N   0  0  0  0  0  0  0  0  0  0  0  0
    7.8373   47.7493  130.8796 C   0  0  0  0  0  0  0  0  0  0  0  0
    6.5318   51.4248  128.8996 H   0  0  0  0  0  0  0  0  0  0  0  0
    7.4956   50.4935  127.6761 H   0  0  0  0  0  0  0  0  0  0  0  0
   10.1048   45.8655  133.5996 C   0  0  0  0  0  0  0  0  0  0  0  0
   10.9843   45.4406  134.5983 O   0  0  0  0  0  0  0  0  0  0  0  0
   12.4781   45.0493  134.0004 S   0  0  0  0  0  0  0  0  0  0  0  0
   13.5905   45.8051  134.6739 O   0  0  0  0  0  0  0  0  0  0  0  0
   12.7338   43.5793  134.3114 O   0  0  0  0  0  0  0  0  0  0  0  0
   12.4182   44.2719  131.3383 C   0  0  0  0  0  0  0  0  0  0  0  0
   12.3494   43.0712  131.6893 O   0  0  0  0  0  0  0  0  0  0  0  0
   12.4818   45.3112  132.2975 N   0  0  0  0  0  0  0  0  0  0  0  0
   12.5271   46.2957  131.9667 H   0  0  0  0  0  0  0  0  0  0  0  0
   12.4332   44.6172  129.8922 C   0  0  0  0  0  0  0  0  0  0  0  0
   13.7953   44.4790  129.4364 N   0  0  0  0  0  0  0  0  0  0  0  0
   14.4553   45.1741  129.7936 H   0  0  0  0  0  0  0  0  0  0  0  0
   14.1235   43.5010  129.3921 H   0  0  0  0  0  0  0  0  0  0  0  0
   11.4348   43.7994  129.1679 C   0  0  0  0  0  0  0  0  0  0  0  0
    9.5892   43.7055  127.5053 C   0  0  0  0  0  0  0  0  0  0  0  0
   10.7707   44.5088  128.0237 C   0  0  0  0  0  0  0  0  0  0  0  0
   10.3141   45.8964  128.3038 C   0  0  0  0  0  0  0  0  0  0  0  0
 36 37  1  0  0  0
 37 38  1  0  0  0
 37 35  1  0  0  0
 35 31  1  0  0  0
 31 32  1  0  0  0
 31 27  1  0  0  0
 27 28  2  0  0  0
 27 29  1  0  0  0
 29 24  1  0  0  0
 24 25  2  0  0  0
 24 26  2  0  0  0
 24 23  1  0  0  0
 23 22  1  0  0  0
 22  1  1  0  0  0
  1  2  1  0  0  0
  2  3  1  0  0  0
  3  4  1  0  0  0
  4  5  1  0  0  0
  4  6  1  0  0  0
  6  7  1  0  0  0
  3 10  1  0  0  0
 10 11  1  0  0  0
 11 12  2  0  0  0
 12 13  1  0  0  0
 13 14  2  0  0  0
 14 15  1  0  0  0
 14 16  1  0  0  0
 16 17  2  0  0  0
 17 18  1  0  0  0
 18 19  2  0  0  0
  6  1  1  0  0  0
 19 10  1  0  0  0
 19 13  1  0  0  0
 32 33  1  0  0  0
 32 34  1  0  0  0
 29 30  1  0  0  0
  5  8  1  0  0  0
  7  9  1  0  0  0
 15 20  1  0  0  0
 15 21  1  0  0  0
M  END
> <minimizedAffinity>
-5.93397

> <CNNscore>
0.2389276624

> <CNNaffinity>
7.1202483177

> <CNN_VS>
1.7012243271

> <CNNaffinity_variance>
0.0815209970

$$$$
[H]O[C@]1([H])[C@@]([H])(C([H])([H])OS(=O)(=O)N([H])C(=O)[C@@]([H])(N([H])[H])C([H])([H])C([H])(C([H])([H])[H])C([H])([H])[H])O[C@@]([H])(n2c([H])nc3c(N([H])[H])nc([H])nc32)[C@]1([H])O[H]


 38 40  0  0  0  0  0  0  0  0999 V2000
   10.9227   45.2952  134.2590 C   0  0  0  0  0  0  0  0  0  0  0  0
    9.8962   44.6598  133.5845 O   0  0  0  0  0  0  0  0  0  0  0  0
   10.3875   43.5447  132.9338 C   0  0  0  0  0  0  0  0  0  0  0  0
   11.9030   43.7170  132.8761 C   0  0  0  0  0  0  0  0  0  0  0  0
   12.5823   42.5386  132.7091 O   0  0  0  0  0  0  0  0  0  0  0  0
   12.0837   44.3123  134.2839 C   0  0  0  0  0  0  0  0  0  0  0  0
   11.8453   43.3305  135.2167 O   0  0  0  0  0  0  0  0  0  0  0  0
   13.0331   42.5412  131.8144 H   0  0  0  0  0  0  0  0  0  0  0  0
   10.9357   43.4479  135.5908 H   0  0  0  0  0  0  0  0  0  0  0  0
    9.7908   43.3058  131.6582 N   0  0  0  0  0  0  0  0  0  0  0  0
    8.6799   42.6279  131.3829 C   0  0  0  0  0  0  0  0  0  0  0  0
    8.4595   42.6338  130.0388 N   0  0  0  0  0  0  0  0  0  0  0  0
    9.4543   43.3340  129.4360 C   0  0  0  0  0  0  0  0  0  0  0  0
    9.7286   43.6530  128.1246 C   0  0  0  0  0  0  0  0  0  0  0  0
    8.8911   43.2248  127.0635 N   0  0  0  0  0  0  0  0  0  0  0  0
   10.8367   44.3881  127.8754 N   0  0  0  0  0  0  0  0  0  0  0  0
   11.6453   44.7971  128.8606 C   0  0  0  0  0  0  0  0  0  0  0  0
   11.3618   44.4756  130.1319 N   0  0  0  0  0  0  0  0  0  0  0  0
   10.2815   43.7486  130.4708 C   0  0  0  0  0  0  0  0  0  0  0  0
    8.2429   43.8814  126.6029 H   0  0  0  0  0  0  0  0  0  0  0  0
    8.9479   42.2164  126.7581 H   0  0  0  0  0  0  0  0  0  0  0  0
   11.2549   46.5645  133.5081 C   0  0  0  0  0  0  0  0  0  0  0  0
   10.2789   46.9089  132.5700 O   0  0  0  0  0  0  0  0  0  0  0  0
    9.2940   48.1293  133.1015 S   0  0  0  0  0  0  0  0  0  0  0  0
    8.6382   47.8159  134.4183 O   0  0  0  0  0  0  0  0  0  0  0  0
   10.1658   49.3529  133.3582 O   0  0  0  0  0  0  0  0  0  0  0  0
    8.3282   49.3960  130.8305 C   0  0  0  0  0  0  0  0  0  0  0  0
    9.4037   50.0297  130.7251 O   0  0  0  0  0  0  0  0  0  0  0  0
    8.1249   48.4712  131.8830 N   0  0  0  0  0  0  0  0  0  0  0  0
    7.2227   47.9568  131.9302 H   0  0  0  0  0  0  0  0  0  0  0  0
    7.2439   49.6140  129.8367 C   0  0  0  0  0  0  0  0  0  0  0  0
    7.1952   51.0303  129.5649 N   0  0  0  0  0  0  0  0  0  0  0  0
    6.8569   51.6176  130.3310 H   0  0  0  0  0  0  0  0  0  0  0  0
    8.0050   51.3806  129.0285 H   0  0  0  0  0  0  0  0  0  0  0  0
    7.4597   48.7476  128.6565 C   0  0  0  0  0  0  0  0  0  0  0  0
    7.4535   46.3975  129.4667 C   0  0  0  0  0  0  0  0  0  0  0  0
    6.6913   47.4585  128.6899 C   0  0  0  0  0  0  0  0  0  0  0  0
    5.3105   47.5455  129.2363 C   0  0  0  0  0  0  0  0  0  0  0  0
 36 37  1  0  0  0
 37 38  1  0  0  0
 37 35  1  0  0  0
 35 31  1  0  0  0
 31 32  1  0  0  0
 31 27  1  0  0  0
 27 28  2  0  0  0
 27 29  1  0  0  0
 29 24  1  0  0  0
 24 25  2  0  0  0
 24 26  2  0  0  0
 24 23  1  0  0  0
 23 22  1  0  0  0
 22  1  1  0  0  0
  1  2  1  0  0  0
  2  3  1  0  0  0
  3  4  1  0  0  0
  4  5  1  0  0  0
  4  6  1  0  0  0
  6  7  1  0  0  0
  3 10  1  0  0  0
 10 11  1  0  0  0
 11 12  2  0  0  0
 12 13  1  0  0  0
 13 14  2  0  0  0
 14 15  1  0  0  0
 14 16  1  0  0  0
 16 17  2  0  0  0
 17 18  1  0  0  0
 18 19  2  0  0  0
  6  1  1  0  0  0
 19 10  1  0  0  0
 19 13  1  0  0  0
 32 33  1  0  0  0
 32 34  1  0  0  0
 29 30  1  0  0  0
  5  8  1  0  0  0
  7  9  1  0  0  0
 15 20  1  0  0  0
 15 21  1  0  0  0
M  END
> <minimizedAffinity>
-8.63634

> <CNNscore>
0.2140342593

> <CNNaffinity>
6.7923612595

> <CNN_VS>
1.4537980556

> <CNNaffinity_variance>
0.6407414675

$$$$
[H]O[C@]1([H])[C@@]([H])(C([H])([H])OS(=O)(=O)N([H])C(=O)[C@@]([H])(N([H])[H])C([H])([H])C([H])(C([H])([H])[H])C([H])([H])[H])O[C@@]([H])(n2c([H])nc3c(N([H])[H])nc([H])nc32)[C@]1([H])O[H]


 38 40  0  0  0  0  0  0  0  0999 V2000
    9.6778   43.1541  129.2493 C   0  0  0  0  0  0  0  0  0  0  0  0
    8.5501   43.8939  128.9433 O   0  0  0  0  0  0  0  0  0  0  0  0
    8.8641   45.2391  128.9371 C   0  0  0  0  0  0  0  0  0  0  0  0
   10.1919   45.3712  129.6782 C   0  0  0  0  0  0  0  0  0  0  0  0
   10.8807   46.5148  129.3684 O   0  0  0  0  0  0  0  0  0  0  0  0
   10.8572   44.1050  129.1102 C   0  0  0  0  0  0  0  0  0  0  0  0
   11.1394   44.3085  127.7798 O   0  0  0  0  0  0  0  0  0  0  0  0
   10.9240   47.1037  130.1778 H   0  0  0  0  0  0  0  0  0  0  0  0
   10.4542   43.8554  127.2265 H   0  0  0  0  0  0  0  0  0  0  0  0
    7.8330   46.0792  129.4581 N   0  0  0  0  0  0  0  0  0  0  0  0
    6.8832   45.7688  130.3361 C   0  0  0  0  0  0  0  0  0  0  0  0
    6.0969   46.8570  130.5659 N   0  0  0  0  0  0  0  0  0  0  0  0
    6.5543   47.8927  129.8166 C   0  0  0  0  0  0  0  0  0  0  0  0
    6.1506   49.2000  129.6599 C   0  0  0  0  0  0  0  0  0  0  0  0
    5.0307   49.7218  130.3558 N   0  0  0  0  0  0  0  0  0  0  0  0
    6.8567   49.9778  128.8073 N   0  0  0  0  0  0  0  0  0  0  0  0
    7.9128   49.5044  128.1347 C   0  0  0  0  0  0  0  0  0  0  0  0
    8.2904   48.2277  128.3000 N   0  0  0  0  0  0  0  0  0  0  0  0
    7.6464   47.3840  129.1271 C   0  0  0  0  0  0  0  0  0  0  0  0
    5.1556   50.3441  131.1685 H   0  0  0  0  0  0  0  0  0  0  0  0
    4.0662   49.4559  130.0208 H   0  0  0  0  0  0  0  0  0  0  0  0
    9.5200   42.6299  130.6584 C   0  0  0  0  0  0  0  0  0  0  0  0
   10.2932   43.3319  131.5861 O   0  0  0  0  0  0  0  0  0  0  0  0
    9.5503   43.4594  133.0605 S   0  0  0  0  0  0  0  0  0  0  0  0
    8.4647   42.4368  133.2553 O   0  0  0  0  0  0  0  0  0  0  0  0
   10.5911   43.1625  134.1336 O   0  0  0  0  0  0  0  0  0  0  0  0
    9.7562   46.2210  133.2221 C   0  0  0  0  0  0  0  0  0  0  0  0
   10.9962   46.1389  133.0639 O   0  0  0  0  0  0  0  0  0  0  0  0
    8.9436   45.0619  133.2410 N   0  0  0  0  0  0  0  0  0  0  0  0
    7.9171   45.1720  133.3639 H   0  0  0  0  0  0  0  0  0  0  0  0
    9.1218   47.5548  133.3929 C   0  0  0  0  0  0  0  0  0  0  0  0
    8.7422   47.6703  134.7802 N   0  0  0  0  0  0  0  0  0  0  0  0
    7.9736   47.0663  135.0816 H   0  0  0  0  0  0  0  0  0  0  0  0
    9.5425   47.7669  135.4254 H   0  0  0  0  0  0  0  0  0  0  0  0
   10.0278   48.6122  132.8919 C   0  0  0  0  0  0  0  0  0  0  0  0
    8.8179   50.4335  131.7092 C   0  0  0  0  0  0  0  0  0  0  0  0
    9.6444   49.1677  131.5511 C   0  0  0  0  0  0  0  0  0  0  0  0
   10.7729   49.4511  130.6245 C   0  0  0  0  0  0  0  0  0  0  0  0
 36 37  1  0  0  0
 37 38  1  0  0  0
 37 35  1  0  0  0
 35 31  1  0  0  0
 31 32  1  0  0  0
 31 27  1  0  0  0
 27 28  2  0  0  0
 27 29  1  0  0  0
 29 24  1  0  0  0
 24 25  2  0  0  0
 24 26  2  0  0  0
 24 23  1  0  0  0
 23 22  1  0  0  0
 22  1  1  0  0  0
  1  2  1  0  0  0
  2  3  1  0  0  0
  3  4  1  0  0  0
  4  5  1  0  0  0
  4  6  1  0  0  0
  6  7  1  0  0  0
  3 10  1  0  0  0
 10 11  1  0  0  0
 11 12  2  0  0  0
 12 13  1  0  0  0
 13 14  2  0  0  0
 14 15  1  0  0  0
 14 16  1  0  0  0
 16 17  2  0  0  0
 17 18  1  0  0  0
 18 19  2  0  0  0
  6  1  1  0  0  0
 19 10  1  0  0  0
 19 13  1  0  0  0
 32 33  1  0  0  0
 32 34  1  0  0  0
 29 30  1  0  0  0
  5  8  1  0  0  0
  7  9  1  0  0  0
 15 20  1  0  0  0
 15 21  1  0  0  0
M  END
> <minimizedAffinity>
-1.79391

> <CNNscore>
0.1953004003

> <CNNaffinity>
7.0686922073

> <CNN_VS>
1.3805184364

> <CNNaffinity_variance>
0.4056358337

$$$$
[H]O[C@]1([H])[C@@]([H])(C([H])([H])OS(=O)(=O)N([H])C(=O)[C@@]([H])(N([H])[H])C([H])([H])C([H])(C([H])([H])[H])C([H])([H])[H])O[C@@]([H])(n2c([H])nc3c(N([H])[H])nc([H])nc32)[C@]1([H])O[H]


 38 40  0  0  0  0  0  0  0  0999 V2000
    7.8740   44.4863  133.2009 C   0  0  0  0  0  0  0  0  0  0  0  0
    8.6787   44.3906  132.0803 O   0  0  0  0  0  0  0  0  0  0  0  0
    9.5681   43.3449  132.2344 C   0  0  0  0  0  0  0  0  0  0  0  0
    9.5818   43.0118  133.7239 C   0  0  0  0  0  0  0  0  0  0  0  0
   10.0148   41.7405  133.9969 O   0  0  0  0  0  0  0  0  0  0  0  0
    8.0744   43.1927  133.9764 C   0  0  0  0  0  0  0  0  0  0  0  0
    7.3936   42.1685  133.3613 O   0  0  0  0  0  0  0  0  0  0  0  0
   10.8840   41.7872  134.4930 H   0  0  0  0  0  0  0  0  0  0  0  0
    7.0041   42.4975  132.5120 H   0  0  0  0  0  0  0  0  0  0  0  0
   10.8655   43.6007  131.6943 N   0  0  0  0  0  0  0  0  0  0  0  0
   12.0448   43.4978  132.3011 C   0  0  0  0  0  0  0  0  0  0  0  0
   13.0388   43.8351  131.4330 N   0  0  0  0  0  0  0  0  0  0  0  0
   12.4831   44.1624  130.2383 C   0  0  0  0  0  0  0  0  0  0  0  0
   13.0045   44.5693  129.0303 C   0  0  0  0  0  0  0  0  0  0  0  0
   14.3997   44.7357  128.8399 N   0  0  0  0  0  0  0  0  0  0  0  0
   12.1363   44.8160  128.0224 N   0  0  0  0  0  0  0  0  0  0  0  0
   10.8151   44.6724  128.1817 C   0  0  0  0  0  0  0  0  0  0  0  0
   10.3260   44.2758  129.3664 N   0  0  0  0  0  0  0  0  0  0  0  0
   11.1159   44.0087  130.4225 C   0  0  0  0  0  0  0  0  0  0  0  0
   14.9492   44.0380  128.3157 H   0  0  0  0  0  0  0  0  0  0  0  0
   14.8612   45.5916  129.2493 H   0  0  0  0  0  0  0  0  0  0  0  0
    8.3114   45.7037  133.9832 C   0  0  0  0  0  0  0  0  0  0  0  0
    9.6661   45.9983  133.8120 O   0  0  0  0  0  0  0  0  0  0  0  0
    9.9158   47.2040  132.7049 S   0  0  0  0  0  0  0  0  0  0  0  0
    9.8849   48.5756  133.3215 O   0  0  0  0  0  0  0  0  0  0  0  0
   11.3235   47.0376  132.1447 O   0  0  0  0  0  0  0  0  0  0  0  0
    8.8610   47.6871  130.1853 C   0  0  0  0  0  0  0  0  0  0  0  0
    9.8482   48.4071  129.9087 O   0  0  0  0  0  0  0  0  0  0  0  0
    8.7483   47.0545  131.4467 N   0  0  0  0  0  0  0  0  0  0  0  0
    7.9192   46.4560  131.6344 H   0  0  0  0  0  0  0  0  0  0  0  0
    7.7871   47.4898  129.1760 C   0  0  0  0  0  0  0  0  0  0  0  0
    7.5388   46.0709  129.0916 N   0  0  0  0  0  0  0  0  0  0  0  0
    8.2860   45.5141  128.6695 H   0  0  0  0  0  0  0  0  0  0  0  0
    7.0763   45.6776  129.9268 H   0  0  0  0  0  0  0  0  0  0  0  0
    6.6122   48.3211  129.5205 C   0  0  0  0  0  0  0  0  0  0  0  0
    7.3273   50.5259  128.6221 C   0  0  0  0  0  0  0  0  0  0  0  0
    6.9442   49.7433  129.8674 C   0  0  0  0  0  0  0  0  0  0  0  0
    5.8838   50.4942  130.5915 C   0  0  0  0  0  0  0  0  0  0  0  0
 36 37  1  0  0  0
 37 38  1  0  0  0
 37 35  1  0  0  0
 35 31  1  0  0  0
 31 32  1  0  0  0
 31 27  1  0  0  0
 27 28  2  0  0  0
 27 29  1  0  0  0
 29 24  1  0  0  0
 24 25  2  0  0  0
 24 26  2  0  0  0
 24 23  1  0  0  0
 23 22  1  0  0  0
 22  1  1  0  0  0
  1  2  1  0  0  0
  2  3  1  0  0  0
  3  4  1  0  0  0
  4  5  1  0  0  0
  4  6  1  0  0  0
  6  7  1  0  0  0
  3 10  1  0  0  0
 10 11  1  0  0  0
 11 12  2  0  0  0
 12 13  1  0  0  0
 13 14  2  0  0  0
 14 15  1  0  0  0
 14 16  1  0  0  0
 16 17  2  0  0  0
 17 18  1  0  0  0
 18 19  2  0  0  0
  6  1  1  0  0  0
 19 10  1  0  0  0
 19 13  1  0  0  0
 32 33  1  0  0  0
 32 34  1  0  0  0
 29 30  1  0  0  0
  5  8  1  0  0  0
  7  9  1  0  0  0
 15 20  1  0  0  0
 15 21  1  0  0  0
M  END
> <minimizedAffinity>
-1.43551

> <CNNscore>
0.1829895377

> <CNNaffinity>
6.7155771255

> <CNN_VS>
1.2288804054

> <CNNaffinity_variance>
0.1417897642

$$$$
[H]O[C@]1([H])[C@@]([H])(C([H])([H])OS(=O)(=O)N([H])C(=O)[C@@]([H])(N([H])[H])C([H])([H])C([H])(C([H])([H])[H])C([H])([H])[H])O[C@@]([H])(n2c([H])nc3c(N([H])[H])nc([H])nc32)[C@]1([H])O[H]


 38 40  0  0  0  0  0  0  0  0999 V2000
    9.9638   45.1266  133.4543 C   0  0  0  0  0  0  0  0  0  0  0  0
   10.3397   46.2613  132.7589 O   0  0  0  0  0  0  0  0  0  0  0  0
    9.7100   47.3667  133.2975 C   0  0  0  0  0  0  0  0  0  0  0  0
    8.5542   46.8320  134.1389 C   0  0  0  0  0  0  0  0  0  0  0  0
    8.1265   47.7084  135.1019 O   0  0  0  0  0  0  0  0  0  0  0  0
    9.2904   45.6155  134.7280 C   0  0  0  0  0  0  0  0  0  0  0  0
   10.2399   46.0578  135.6188 O   0  0  0  0  0  0  0  0  0  0  0  0
    7.1950   48.0073  134.8860 H   0  0  0  0  0  0  0  0  0  0  0  0
   11.1311   46.0328  135.1871 H   0  0  0  0  0  0  0  0  0  0  0  0
    9.3102   48.3374  132.3289 N   0  0  0  0  0  0  0  0  0  0  0  0
    9.6937   49.6072  132.2292 C   0  0  0  0  0  0  0  0  0  0  0  0
    9.0759   50.1912  131.1649 N   0  0  0  0  0  0  0  0  0  0  0  0
    8.2757   49.2724  130.5659 C   0  0  0  0  0  0  0  0  0  0  0  0
    7.4395   49.3131  129.4725 C   0  0  0  0  0  0  0  0  0  0  0  0
    7.2655   50.4972  128.7120 N   0  0  0  0  0  0  0  0  0  0  0  0
    6.7758   48.1800  129.1465 N   0  0  0  0  0  0  0  0  0  0  0  0
    6.9194   47.0530  129.8543 C   0  0  0  0  0  0  0  0  0  0  0  0
    7.7381   47.0332  130.9169 N   0  0  0  0  0  0  0  0  0  0  0  0
    8.4368   48.1131  131.3123 C   0  0  0  0  0  0  0  0  0  0  0  0
    7.7155   50.6052  127.7905 H   0  0  0  0  0  0  0  0  0  0  0  0
    6.6642   51.2653  129.1142 H   0  0  0  0  0  0  0  0  0  0  0  0
    9.0273   44.3318  132.5730 C   0  0  0  0  0  0  0  0  0  0  0  0
    9.2674   42.9569  132.6305 O   0  0  0  0  0  0  0  0  0  0  0  0
   10.8436   42.5758  132.2953 S   0  0  0  0  0  0  0  0  0  0  0  0
   11.7917   43.0198  133.3752 O   0  0  0  0  0  0  0  0  0  0  0  0
   10.9558   41.0565  132.2498 O   0  0  0  0  0  0  0  0  0  0  0  0
   12.2402   44.2685  130.5985 C   0  0  0  0  0  0  0  0  0  0  0  0
   12.8654   44.7364  131.5780 O   0  0  0  0  0  0  0  0  0  0  0  0
   11.2674   43.2542  130.7693 N   0  0  0  0  0  0  0  0  0  0  0  0
   10.7775   42.8839  129.9303 H   0  0  0  0  0  0  0  0  0  0  0  0
   12.5203   44.7825  129.2317 C   0  0  0  0  0  0  0  0  0  0  0  0
   13.9180   44.5426  128.9656 N   0  0  0  0  0  0  0  0  0  0  0  0
   14.5761   45.1075  129.5080 H   0  0  0  0  0  0  0  0  0  0  0  0
   14.1531   43.5456  128.8354 H   0  0  0  0  0  0  0  0  0  0  0  0
   11.5767   44.1807  128.2633 C   0  0  0  0  0  0  0  0  0  0  0  0
    9.1105   44.1802  128.5750 C   0  0  0  0  0  0  0  0  0  0  0  0
   10.3106   44.9635  128.0690 C   0  0  0  0  0  0  0  0  0  0  0  0
   10.2884   46.3164  128.6870 C   0  0  0  0  0  0  0  0  0  0  0  0
 36 37  1  0  0  0
 37 38  1  0  0  0
 37 35  1  0  0  0
 35 31  1  0  0  0
 31 32  1  0  0  0
 31 27  1  0  0  0
 27 28  2  0  0  0
 27 29  1  0  0  0
 29 24  1  0  0  0
 24 25  2  0  0  0
 24 26  2  0  0  0
 24 23  1  0  0  0
 23 22  1  0  0  0
 22  1  1  0  0  0
  1  2  1  0  0  0
  2  3  1  0  0  0
  3  4  1  0  0  0
  4  5  1  0  0  0
  4  6  1  0  0  0
  6  7  1  0  0  0
  3 10  1  0  0  0
 10 11  1  0  0  0
 11 12  2  0  0  0
 12 13  1  0  0  0
 13 14  2  0  0  0
 14 15  1  0  0  0
 14 16  1  0  0  0
 16 17  2  0  0  0
 17 18  1  0  0  0
 18 19  2  0  0  0
  6  1  1  0  0  0
 19 10  1  0  0  0
 19 13  1  0  0  0
 32 33  1  0  0  0
 32 34  1  0  0  0
 29 30  1  0  0  0
  5  8  1  0  0  0
  7  9  1  0  0  0
 15 20  1  0  0  0
 15 21  1  0  0  0
M  END
> <minimizedAffinity>
-5.99231

> <CNNscore>
0.1720855832

> <CNNaffinity>
7.1450738907

> <CNN_VS>
1.2295641899

> <CNNaffinity_variance>
0.2108508646

$$$$
[H]O[C@]1([H])[C@@]([H])(C([H])([H])OS(=O)(=O)N([H])C(=O)[C@@]([H])(N([H])[H])C([H])([H])C([H])(C([H])([H])[H])C([H])([H])[H])O[C@@]([H])(n2c([H])nc3c(N([H])[H])nc([H])nc32)[C@]1([H])O[H]


 38 40  0  0  0  0  0  0  0  0999 V2000
   10.8315   46.0009  133.8285 C   0  0  0  0  0  0  0  0  0  0  0  0
   10.4896   46.2137  132.5055 O   0  0  0  0  0  0  0  0  0  0  0  0
    9.6269   47.2889  132.4153 C   0  0  0  0  0  0  0  0  0  0  0  0
    9.0816   47.5181  133.8224 C   0  0  0  0  0  0  0  0  0  0  0  0
    8.6058   48.7872  134.0254 O   0  0  0  0  0  0  0  0  0  0  0  0
   10.3910   47.2458  134.5840 C   0  0  0  0  0  0  0  0  0  0  0  0
   11.2697   48.2754  134.3416 O   0  0  0  0  0  0  0  0  0  0  0  0
    7.6152   48.7492  134.1701 H   0  0  0  0  0  0  0  0  0  0  0  0
   11.9334   47.9872  133.6651 H   0  0  0  0  0  0  0  0  0  0  0  0
    8.6083   47.1355  131.4258 N   0  0  0  0  0  0  0  0  0  0  0  0
    8.1117   46.0085  130.9231 C   0  0  0  0  0  0  0  0  0  0  0  0
    7.1549   46.3004  129.9987 N   0  0  0  0  0  0  0  0  0  0  0  0
    7.0338   47.6495  129.9061 C   0  0  0  0  0  0  0  0  0  0  0  0
    6.2375   48.4798  129.1492 C   0  0  0  0  0  0  0  0  0  0  0  0
    5.3001   47.9662  128.2175 N   0  0  0  0  0  0  0  0  0  0  0  0
    6.3831   49.8144  129.3169 N   0  0  0  0  0  0  0  0  0  0  0  0
    7.2665   50.3215  130.1854 C   0  0  0  0  0  0  0  0  0  0  0  0
    8.0341   49.4964  130.9134 N   0  0  0  0  0  0  0  0  0  0  0  0
    7.9558   48.1571  130.8113 C   0  0  0  0  0  0  0  0  0  0  0  0
    4.2913   47.9589  128.4310 H   0  0  0  0  0  0  0  0  0  0  0  0
    5.6620   47.5907  127.3002 H   0  0  0  0  0  0  0  0  0  0  0  0
   10.1150   44.7553  134.2979 C   0  0  0  0  0  0  0  0  0  0  0  0
    9.0515   44.3973  133.4658 O   0  0  0  0  0  0  0  0  0  0  0  0
    9.4372   43.1488  132.4487 S   0  0  0  0  0  0  0  0  0  0  0  0
   10.2080   42.0553  133.1361 O   0  0  0  0  0  0  0  0  0  0  0  0
    8.1352   42.5051  131.9869 O   0  0  0  0  0  0  0  0  0  0  0  0
   11.7167   43.8881  131.0515 C   0  0  0  0  0  0  0  0  0  0  0  0
   12.4281   43.5183  132.0142 O   0  0  0  0  0  0  0  0  0  0  0  0
   10.3062   43.7779  131.1005 N   0  0  0  0  0  0  0  0  0  0  0  0
    9.7511   44.0856  130.2771 H   0  0  0  0  0  0  0  0  0  0  0  0
   12.3587   44.4523  129.8349 C   0  0  0  0  0  0  0  0  0  0  0  0
   13.7848   44.3089  130.0015 N   0  0  0  0  0  0  0  0  0  0  0  0
   14.2094   44.9012  130.7193 H   0  0  0  0  0  0  0  0  0  0  0  0
   14.1157   43.3325  129.9441 H   0  0  0  0  0  0  0  0  0  0  0  0
   11.7931   43.8155  128.6246 C   0  0  0  0  0  0  0  0  0  0  0  0
    9.3710   43.8841  128.0696 C   0  0  0  0  0  0  0  0  0  0  0  0
   10.7031   44.6082  127.9636 C   0  0  0  0  0  0  0  0  0  0  0  0
   10.5271   45.9995  128.4593 C   0  0  0  0  0  0  0  0  0  0  0  0
 36 37  1  0  0  0
 37 38  1  0  0  0
 37 35  1  0  0  0
 35 31  1  0  0  0
 31 32  1  0  0  0
 31 27  1  0  0  0
 27 28  2  0  0  0
 27 29  1  0  0  0
 29 24  1  0  0  0
 24 25  2  0  0  0
 24 26  2  0  0  0
 24 23  1  0  0  0
 23 22  1  0  0  0
 22  1  1  0  0  0
  1  2  1  0  0  0
  2  3  1  0  0  0
  3  4  1  0  0  0
  4  5  1  0  0  0
  4  6  1  0  0  0
  6  7  1  0  0  0
  3 10  1  0  0  0
 10 11  1  0  0  0
 11 12  2  0  0  0
 12 13  1  0  0  0
 13 14  2  0  0  0
 14 15  1  0  0  0
 14 16  1  0  0  0
 16 17  2  0  0  0
 17 18  1  0  0  0
 18 19  2  0  0  0
  6  1  1  0  0  0
 19 10  1  0  0  0
 19 13  1  0  0  0
 32 33  1  0  0  0
 32 34  1  0  0  0
 29 30  1  0  0  0
  5  8  1  0  0  0
  7  9  1  0  0  0
 15 20  1  0  0  0
 15 21  1  0  0  0
M  END
> <minimizedAffinity>
-5.64993

> <CNNscore>
0.1509734988

> <CNNaffinity>
7.1101746559

> <CNN_VS>
1.0734479427

> <CNNaffinity_variance>
0.0837805942

$$$$
[H]N=C(c1c([H])c([H])c2c(c1[H])c(C(=O)Oc1c([H])c([H])c(OC(=O)OC(C([H])([H])[H])(C([H])([H])[H])C([H])([H])C([H])([H])C([H])([H])[H])c([H])c1OC([H])([H])[H])c(N([H])[H])n2C([H])([H])c1c([H])c([H])c([H])c([H])c1[H])N([H])[H]


 46 49  0  0  0  0  0  0  0  0999 V2000
   11.0269   44.6370  132.9037 C   0  0  0  0  0  0  0  0  0  0  0  0
    9.7212   44.2074  133.1106 C   0  0  0  0  0  0  0  0  0  0  0  0
    9.0402   44.3947  134.3444 N   0  0  0  0  0  0  0  0  0  0  0  0
    9.3095   43.6375  131.9676 N   0  0  0  0  0  0  0  0  0  0  0  0
   10.2864   43.6832  131.0444 C   0  0  0  0  0  0  0  0  0  0  0  0
   10.4316   43.2735  129.7366 C   0  0  0  0  0  0  0  0  0  0  0  0
   11.5882   43.4586  128.9998 C   0  0  0  0  0  0  0  0  0  0  0  0
   12.6664   44.0792  129.5701 C   0  0  0  0  0  0  0  0  0  0  0  0
   12.5529   44.5021  130.8795 C   0  0  0  0  0  0  0  0  0  0  0  0
   11.3980   44.3156  131.6102 C   0  0  0  0  0  0  0  0  0  0  0  0
    8.2001   45.0248  134.3272 H   0  0  0  0  0  0  0  0  0  0  0  0
    9.3257   43.9501  135.2396 H   0  0  0  0  0  0  0  0  0  0  0  0
   13.9133   44.3056  128.8519 C   0  0  0  0  0  0  0  0  0  0  0  0
   15.0781   44.7308  129.5468 N   0  0  0  0  0  0  0  0  0  0  0  0
   14.0153   44.1361  127.5909 N   0  0  0  0  0  0  0  0  0  0  0  0
   15.2538   45.7450  129.6644 H   0  0  0  0  0  0  0  0  0  0  0  0
   15.7239   44.0059  129.9192 H   0  0  0  0  0  0  0  0  0  0  0  0
   13.2849   43.8344  126.9305 H   0  0  0  0  0  0  0  0  0  0  0  0
   11.8556   45.3126  133.8942 C   0  0  0  0  0  0  0  0  0  0  0  0
   12.6838   44.6530  134.5918 O   0  0  0  0  0  0  0  0  0  0  0  0
   11.8201   46.6703  134.1551 O   0  0  0  0  0  0  0  0  0  0  0  0
    9.3138   49.2864  132.0066 C   0  0  0  0  0  0  0  0  0  0  0  0
   10.5475   48.9623  131.5295 C   0  0  0  0  0  0  0  0  0  0  0  0
   11.3626   48.0983  132.2492 C   0  0  0  0  0  0  0  0  0  0  0  0
   10.9756   47.5399  133.4501 C   0  0  0  0  0  0  0  0  0  0  0  0
    9.7187   47.8808  133.9191 C   0  0  0  0  0  0  0  0  0  0  0  0
    8.9160   48.7387  133.1991 C   0  0  0  0  0  0  0  0  0  0  0  0
    9.2555   47.3673  135.1099 O   0  0  0  0  0  0  0  0  0  0  0  0
    7.8799   47.0859  135.2574 C   0  0  0  0  0  0  0  0  0  0  0  0
    8.4397   50.1399  131.3511 O   0  0  0  0  0  0  0  0  0  0  0  0
    8.0276   49.8108  130.0583 C   0  0  0  0  0  0  0  0  0  0  0  0
    7.1798   50.5292  129.4848 O   0  0  0  0  0  0  0  0  0  0  0  0
    8.5172   48.7181  129.3762 O   0  0  0  0  0  0  0  0  0  0  0  0
    7.9553   47.4517  129.2829 C   0  0  0  0  0  0  0  0  0  0  0  0
    8.9430   46.4316  128.6931 C   0  0  0  0  0  0  0  0  0  0  0  0
    7.6930   46.9555  130.6875 C   0  0  0  0  0  0  0  0  0  0  0  0
    6.7723   47.4169  128.3760 C   0  0  0  0  0  0  0  0  0  0  0  0
    4.7284   46.8699  129.7184 C   0  0  0  0  0  0  0  0  0  0  0  0
    5.4719   47.8855  128.9098 C   0  0  0  0  0  0  0  0  0  0  0  0
    8.0026   43.0579  131.7474 C   0  0  0  0  0  0  0  0  0  0  0  0
    7.5256   42.1768  132.8136 C   0  0  0  0  0  0  0  0  0  0  0  0
    6.2048   41.7878  132.8640 C   0  0  0  0  0  0  0  0  0  0  0  0
    5.8084   40.9570  133.8877 C   0  0  0  0  0  0  0  0  0  0  0  0
    6.6580   40.4930  134.8639 C   0  0  0  0  0  0  0  0  0  0  0  0
    7.9797   40.8724  134.8269 C   0  0  0  0  0  0  0  0  0  0  0  0
    8.3930   41.7131  133.7954 C   0  0  0  0  0  0  0  0  0  0  0  0
 38 39  1  0  0  0
 39 37  1  0  0  0
 37 34  1  0  0  0
 34 35  1  0  0  0
 34 36  1  0  0  0
 34 33  1  0  0  0
 33 31  1  0  0  0
 31 32  2  0  0  0
 31 30  1  0  0  0
 30 22  1  0  0  0
 22 23  2  0  0  0
 23 24  1  0  0  0
 24 25  2  0  0  0
 25 21  1  0  0  0
 21 19  1  0  0  0
 19 20  2  0  0  0
 19  1  1  0  0  0
  1  2  2  0  0  0
  2  3  1  0  0  0
  2  4  1  0  0  0
  4 40  1  0  0  0
 40 41  1  0  0  0
 41 42  2  0  0  0
 42 43  1  0  0  0
 43 44  2  0  0  0
 44 45  1  0  0  0
 45 46  2  0  0  0
  4  5  1  0  0  0
  5  6  2  0  0  0
  6  7  1  0  0  0
  7  8  2  0  0  0
  8  9  1  0  0  0
  9 10  2  0  0  0
  8 13  1  0  0  0
 13 14  1  0  0  0
 13 15  2  0  0  0
 25 26  1  0  0  0
 26 28  1  0  0  0
 28 29  1  0  0  0
 26 27  2  0  0  0
 27 22  1  0  0  0
 10  1  1  0  0  0
 46 41  1  0  0  0
 10  5  1  0  0  0
  3 11  1  0  0  0
  3 12  1  0  0  0
 14 16  1  0  0  0
 14 17  1  0  0  0
 15 18  1  0  0  0
M  END
> <minimizedAffinity>
11.40584

> <CNNscore>
0.5325204730

> <CNNaffinity>
8.0621747971

> <CNN_VS>
4.2932729721

> <CNNaffinity_variance>
1.4980792999

$$$$
[H]N=C(c1c([H])c([H])c2c(c1[H])c(C(=O)Oc1c([H])c([H])c(OC(=O)OC(C([H])([H])[H])(C([H])([H])[H])C([H])([H])C([H])([H])C([H])([H])[H])c([H])c1OC([H])([H])[H])c(N([H])[H])n2C([H])([H])c1c([H])c([H])c([H])c([H])c1[H])N([H])[H]


 46 49  0  0  0  0  0  0  0  0999 V2000
   10.7644   44.8577  132.6380 C   0  0  0  0  0  0  0  0  0  0  0  0
   11.4587   45.2957  131.5163 C   0  0  0  0  0  0  0  0  0  0  0  0
   12.5065   46.2537  131.5904 N   0  0  0  0  0  0  0  0  0  0  0  0
   10.9462   44.6473  130.4592 N   0  0  0  0  0  0  0  0  0  0  0  0
    9.9619   43.8189  130.8515 C   0  0  0  0  0  0  0  0  0  0  0  0
    9.1098   42.9314  130.2307 C   0  0  0  0  0  0  0  0  0  0  0  0
    8.1619   42.1811  130.9041 C   0  0  0  0  0  0  0  0  0  0  0  0
    8.0369   42.3022  132.2615 C   0  0  0  0  0  0  0  0  0  0  0  0
    8.8764   43.1833  132.9136 C   0  0  0  0  0  0  0  0  0  0  0  0
    9.8199   43.9291  132.2383 C   0  0  0  0  0  0  0  0  0  0  0  0
   13.4665   45.9228  131.3219 H   0  0  0  0  0  0  0  0  0  0  0  0
   12.3726   47.2402  131.8895 H   0  0  0  0  0  0  0  0  0  0  0  0
    7.0609   41.5432  133.0316 C   0  0  0  0  0  0  0  0  0  0  0  0
    5.8387   41.1280  132.4364 N   0  0  0  0  0  0  0  0  0  0  0  0
    7.2542   41.2224  134.2519 N   0  0  0  0  0  0  0  0  0  0  0  0
    5.0153   41.7549  132.4839 H   0  0  0  0  0  0  0  0  0  0  0  0
    5.8072   40.2005  131.9674 H   0  0  0  0  0  0  0  0  0  0  0  0
    8.0716   41.4344  134.8414 H   0  0  0  0  0  0  0  0  0  0  0  0
   11.0027   45.3103  134.0029 C   0  0  0  0  0  0  0  0  0  0  0  0
   11.5420   44.5347  134.8485 O   0  0  0  0  0  0  0  0  0  0  0  0
   10.6796   46.5666  134.4825 O   0  0  0  0  0  0  0  0  0  0  0  0
    8.9020   49.5091  132.0488 C   0  0  0  0  0  0  0  0  0  0  0  0
   10.1708   49.6715  132.5160 C   0  0  0  0  0  0  0  0  0  0  0  0
   10.7436   48.6925  133.3175 C   0  0  0  0  0  0  0  0  0  0  0  0
   10.0758   47.5382  133.6715 C   0  0  0  0  0  0  0  0  0  0  0  0
    8.7875   47.3907  133.1875 C   0  0  0  0  0  0  0  0  0  0  0  0
    8.2262   48.3666  132.3929 C   0  0  0  0  0  0  0  0  0  0  0  0
    8.0514   46.2680  133.4938 O   0  0  0  0  0  0  0  0  0  0  0  0
    7.6854   46.0211  134.8349 C   0  0  0  0  0  0  0  0  0  0  0  0
    8.2579   50.4369  131.2447 O   0  0  0  0  0  0  0  0  0  0  0  0
    7.1841   50.0108  130.4606 C   0  0  0  0  0  0  0  0  0  0  0  0
    6.6452   50.8168  129.6710 O   0  0  0  0  0  0  0  0  0  0  0  0
    6.6840   48.7279  130.5167 O   0  0  0  0  0  0  0  0  0  0  0  0
    6.7482   47.7462  129.5366 C   0  0  0  0  0  0  0  0  0  0  0  0
    6.8835   46.3408  130.1452 C   0  0  0  0  0  0  0  0  0  0  0  0
    5.4179   47.7204  128.8174 C   0  0  0  0  0  0  0  0  0  0  0  0
    7.9362   47.9018  128.6491 C   0  0  0  0  0  0  0  0  0  0  0  0
   10.3230   48.0558  129.3964 C   0  0  0  0  0  0  0  0  0  0  0  0
    9.1760   47.1757  129.0119 C   0  0  0  0  0  0  0  0  0  0  0  0
   11.3850   44.8053  129.0899 C   0  0  0  0  0  0  0  0  0  0  0  0
   12.7580   44.3758  128.8236 C   0  0  0  0  0  0  0  0  0  0  0  0
   13.1032   43.8493  127.5980 C   0  0  0  0  0  0  0  0  0  0  0  0
   14.4091   43.4615  127.3993 C   0  0  0  0  0  0  0  0  0  0  0  0
   15.3896   43.5705  128.3568 C   0  0  0  0  0  0  0  0  0  0  0  0
   15.0605   44.0946  129.5853 C   0  0  0  0  0  0  0  0  0  0  0  0
   13.7418   44.4907  129.7984 C   0  0  0  0  0  0  0  0  0  0  0  0
 38 39  1  0  0  0
 39 37  1  0  0  0
 37 34  1  0  0  0
 34 35  1  0  0  0
 34 36  1  0  0  0
 34 33  1  0  0  0
 33 31  1  0  0  0
 31 32  2  0  0  0
 31 30  1  0  0  0
 30 22  1  0  0  0
 22 23  2  0  0  0
 23 24  1  0  0  0
 24 25  2  0  0  0
 25 21  1  0  0  0
 21 19  1  0  0  0
 19 20  2  0  0  0
 19  1  1  0  0  0
  1  2  2  0  0  0
  2  3  1  0  0  0
  2  4  1  0  0  0
  4 40  1  0  0  0
 40 41  1  0  0  0
 41 42  2  0  0  0
 42 43  1  0  0  0
 43 44  2  0  0  0
 44 45  1  0  0  0
 45 46  2  0  0  0
  4  5  1  0  0  0
  5  6  2  0  0  0
  6  7  1  0  0  0
  7  8  2  0  0  0
  8  9  1  0  0  0
  9 10  2  0  0  0
  8 13  1  0  0  0
 13 14  1  0  0  0
 13 15  2  0  0  0
 25 26  1  0  0  0
 26 28  1  0  0  0
 28 29  1  0  0  0
 26 27  2  0  0  0
 27 22  1  0  0  0
 10  1  1  0  0  0
 46 41  1  0  0  0
 10  5  1  0  0  0
  3 11  1  0  0  0
  3 12  1  0  0  0
 14 16  1  0  0  0
 14 17  1  0  0  0
 15 18  1  0  0  0
M  END
> <minimizedAffinity>
8.29695

> <CNNscore>
0.4744006991

> <CNNaffinity>
7.6790885925

> <CNN_VS>
3.6429650784

> <CNNaffinity_variance>
0.3350420892

$$$$
[H]N=C(c1c([H])c([H])c2c(c1[H])c(C(=O)Oc1c([H])c([H])c(OC(=O)OC(C([H])([H])[H])(C([H])([H])[H])C([H])([H])C([H])([H])C([H])([H])[H])c([H])c1OC([H])([H])[H])c(N([H])[H])n2C([H])([H])c1c([H])c([H])c([H])c([H])c1[H])N([H])[H]


 46 49  0  0  0  0  0  0  0  0999 V2000
   10.2419   42.9072  131.3426 C   0  0  0  0  0  0  0  0  0  0  0  0
   11.2195   43.8051  131.7551 C   0  0  0  0  0  0  0  0  0  0  0  0
   12.2972   44.2017  130.9171 N   0  0  0  0  0  0  0  0  0  0  0  0
   10.9147   44.1682  133.0105 N   0  0  0  0  0  0  0  0  0  0  0  0
    9.7929   43.5475  133.4171 C   0  0  0  0  0  0  0  0  0  0  0  0
    9.0299   43.5347  134.5645 C   0  0  0  0  0  0  0  0  0  0  0  0
    7.8810   42.7776  134.7121 C   0  0  0  0  0  0  0  0  0  0  0  0
    7.4501   41.9868  133.6816 C   0  0  0  0  0  0  0  0  0  0  0  0
    8.1926   41.9775  132.5175 C   0  0  0  0  0  0  0  0  0  0  0  0
    9.3372   42.7340  132.3749 C   0  0  0  0  0  0  0  0  0  0  0  0
   12.3277   45.2135  130.6370 H   0  0  0  0  0  0  0  0  0  0  0  0
   13.0374   43.5560  130.5768 H   0  0  0  0  0  0  0  0  0  0  0  0
    6.2504   41.1654  133.7700 C   0  0  0  0  0  0  0  0  0  0  0  0
    5.4094   40.9939  132.6370 N   0  0  0  0  0  0  0  0  0  0  0  0
    5.9061   40.5736  134.8473 N   0  0  0  0  0  0  0  0  0  0  0  0
    4.6353   41.6636  132.4768 H   0  0  0  0  0  0  0  0  0  0  0  0
    5.5975   40.1955  131.9979 H   0  0  0  0  0  0  0  0  0  0  0  0
    6.3875   40.5831  135.7577 H   0  0  0  0  0  0  0  0  0  0  0  0
   10.1908   42.2629  130.0362 C   0  0  0  0  0  0  0  0  0  0  0  0
   10.3965   41.0163  129.9298 O   0  0  0  0  0  0  0  0  0  0  0  0
    9.9263   42.9168  128.8466 O   0  0  0  0  0  0  0  0  0  0  0  0
    9.3452   47.0854  128.6850 C   0  0  0  0  0  0  0  0  0  0  0  0
    8.3646   46.2680  129.1590 C   0  0  0  0  0  0  0  0  0  0  0  0
    8.5709   44.8952  129.2063 C   0  0  0  0  0  0  0  0  0  0  0  0
    9.7461   44.3062  128.7873 C   0  0  0  0  0  0  0  0  0  0  0  0
   10.7310   45.1527  128.3087 C   0  0  0  0  0  0  0  0  0  0  0  0
   10.5186   46.5136  128.2650 C   0  0  0  0  0  0  0  0  0  0  0  0
   11.9341   44.6460  127.8705 O   0  0  0  0  0  0  0  0  0  0  0  0
   13.0586   44.6887  128.7234 C   0  0  0  0  0  0  0  0  0  0  0  0
    9.2200   48.4639  128.6044 O   0  0  0  0  0  0  0  0  0  0  0  0
    9.3627   49.2173  129.7712 C   0  0  0  0  0  0  0  0  0  0  0  0
   10.4274   49.1410  130.4225 O   0  0  0  0  0  0  0  0  0  0  0  0
    8.3732   50.0514  130.2447 O   0  0  0  0  0  0  0  0  0  0  0  0
    7.0342   50.0769  129.8773 C   0  0  0  0  0  0  0  0  0  0  0  0
    6.2323   51.0864  130.7151 C   0  0  0  0  0  0  0  0  0  0  0  0
    6.9506   50.6079  128.4635 C   0  0  0  0  0  0  0  0  0  0  0  0
    6.3571   48.7664  130.0945 C   0  0  0  0  0  0  0  0  0  0  0  0
    4.8451   46.9286  129.3099 C   0  0  0  0  0  0  0  0  0  0  0  0
    5.5490   48.2081  128.9850 C   0  0  0  0  0  0  0  0  0  0  0  0
   11.6742   45.0970  133.8186 C   0  0  0  0  0  0  0  0  0  0  0  0
   11.1683   46.4697  133.8290 C   0  0  0  0  0  0  0  0  0  0  0  0
   11.8550   47.4655  134.4888 C   0  0  0  0  0  0  0  0  0  0  0  0
   11.3358   48.7403  134.4668 C   0  0  0  0  0  0  0  0  0  0  0  0
   10.1688   49.0760  133.8222 C   0  0  0  0  0  0  0  0  0  0  0  0
    9.4721   48.0929  133.1588 C   0  0  0  0  0  0  0  0  0  0  0  0
    9.9876   46.7985  133.1739 C   0  0  0  0  0  0  0  0  0  0  0  0
 38 39  1  0  0  0
 39 37  1  0  0  0
 37 34  1  0  0  0
 34 35  1  0  0  0
 34 36  1  0  0  0
 34 33  1  0  0  0
 33 31  1  0  0  0
 31 32  2  0  0  0
 31 30  1  0  0  0
 30 22  1  0  0  0
 22 23  2  0  0  0
 23 24  1  0  0  0
 24 25  2  0  0  0
 25 21  1  0  0  0
 21 19  1  0  0  0
 19 20  2  0  0  0
 19  1  1  0  0  0
  1  2  2  0  0  0
  2  3  1  0  0  0
  2  4  1  0  0  0
  4 40  1  0  0  0
 40 41  1  0  0  0
 41 42  2  0  0  0
 42 43  1  0  0  0
 43 44  2  0  0  0
 44 45  1  0  0  0
 45 46  2  0  0  0
  4  5  1  0  0  0
  5  6  2  0  0  0
  6  7  1  0  0  0
  7  8  2  0  0  0
  8  9  1  0  0  0
  9 10  2  0  0  0
  8 13  1  0  0  0
 13 14  1  0  0  0
 13 15  2  0  0  0
 25 26  1  0  0  0
 26 28  1  0  0  0
 28 29  1  0  0  0
 26 27  2  0  0  0
 27 22  1  0  0  0
 10  1  1  0  0  0
 46 41  1  0  0  0
 10  5  1  0  0  0
  3 11  1  0  0  0
  3 12  1  0  0  0
 14 16  1  0  0  0
 14 17  1  0  0  0
 15 18  1  0  0  0
M  END
> <minimizedAffinity>
11.76042

> <CNNscore>
0.4427045584

> <CNNaffinity>
7.6024627686

> <CNN_VS>
3.3656449318

> <CNNaffinity_variance>
0.4583702981

$$$$
[H]N=C(c1c([H])c([H])c2c(c1[H])c(C(=O)Oc1c([H])c([H])c(OC(=O)OC(C([H])([H])[H])(C([H])([H])[H])C([H])([H])C([H])([H])C([H])([H])[H])c([H])c1OC([H])([H])[H])c(N([H])[H])n2C([H])([H])c1c([H])c([H])c([H])c([H])c1[H])N([H])[H]


 46 49  0  0  0  0  0  0  0  0999 V2000
   11.7126   44.3735  134.6557 C   0  0  0  0  0  0  0  0  0  0  0  0
   12.9906   44.8915  134.8307 C   0  0  0  0  0  0  0  0  0  0  0  0
   14.0572   44.1285  135.3797 N   0  0  0  0  0  0  0  0  0  0  0  0
   12.9646   46.1585  134.3896 N   0  0  0  0  0  0  0  0  0  0  0  0
   11.7355   46.4725  133.9427 C   0  0  0  0  0  0  0  0  0  0  0  0
   11.1375   47.5855  133.3924 C   0  0  0  0  0  0  0  0  0  0  0  0
    9.8090   47.6298  133.0074 C   0  0  0  0  0  0  0  0  0  0  0  0
    9.0169   46.5254  133.1678 C   0  0  0  0  0  0  0  0  0  0  0  0
    9.5863   45.3935  133.7163 C   0  0  0  0  0  0  0  0  0  0  0  0
   10.9110   45.3539  134.0985 C   0  0  0  0  0  0  0  0  0  0  0  0
   14.8689   43.9290  134.7439 H   0  0  0  0  0  0  0  0  0  0  0  0
   14.0726   43.7679  136.3545 H   0  0  0  0  0  0  0  0  0  0  0  0
    7.6118   46.5039  132.7844 C   0  0  0  0  0  0  0  0  0  0  0  0
    7.2089   46.9546  131.4979 N   0  0  0  0  0  0  0  0  0  0  0  0
    6.6960   46.0878  133.5702 N   0  0  0  0  0  0  0  0  0  0  0  0
    6.9706   47.9540  131.3648 H   0  0  0  0  0  0  0  0  0  0  0  0
    7.1650   46.2627  130.7230 H   0  0  0  0  0  0  0  0  0  0  0  0
    6.7990   45.7277  134.5296 H   0  0  0  0  0  0  0  0  0  0  0  0
   11.2998   43.0201  135.0056 C   0  0  0  0  0  0  0  0  0  0  0  0
   11.5167   42.5666  136.1696 O   0  0  0  0  0  0  0  0  0  0  0  0
   10.6635   42.1446  134.1447 O   0  0  0  0  0  0  0  0  0  0  0  0
    8.5499   43.5076  130.7659 C   0  0  0  0  0  0  0  0  0  0  0  0
    9.8888   43.7287  130.8802 C   0  0  0  0  0  0  0  0  0  0  0  0
   10.5722   43.2731  132.0002 C   0  0  0  0  0  0  0  0  0  0  0  0
    9.9477   42.5929  133.0253 C   0  0  0  0  0  0  0  0  0  0  0  0
    8.5870   42.3776  132.8917 C   0  0  0  0  0  0  0  0  0  0  0  0
    7.9161   42.8327  131.7774 C   0  0  0  0  0  0  0  0  0  0  0  0
    7.8874   41.7067  133.8698 O   0  0  0  0  0  0  0  0  0  0  0  0
    6.5515   41.3193  133.6276 C   0  0  0  0  0  0  0  0  0  0  0  0
    7.7945   43.9285  129.6822 O   0  0  0  0  0  0  0  0  0  0  0  0
    8.2575   45.0042  128.9221 C   0  0  0  0  0  0  0  0  0  0  0  0
    7.7280   46.1279  129.0660 O   0  0  0  0  0  0  0  0  0  0  0  0
    9.2830   44.8845  128.0095 O   0  0  0  0  0  0  0  0  0  0  0  0
   10.3181   43.9586  128.0096 C   0  0  0  0  0  0  0  0  0  0  0  0
   10.4704   43.2738  129.3777 C   0  0  0  0  0  0  0  0  0  0  0  0
    9.9392   42.8387  127.0662 C   0  0  0  0  0  0  0  0  0  0  0  0
   11.6440   44.5840  127.7378 C   0  0  0  0  0  0  0  0  0  0  0  0
   12.0982   45.2897  130.0989 C   0  0  0  0  0  0  0  0  0  0  0  0
   12.6213   44.6547  128.8494 C   0  0  0  0  0  0  0  0  0  0  0  0
   14.0922   47.0646  134.3864 C   0  0  0  0  0  0  0  0  0  0  0  0
   14.3761   47.7083  135.6693 C   0  0  0  0  0  0  0  0  0  0  0  0
   15.4430   47.2987  136.4389 C   0  0  0  0  0  0  0  0  0  0  0  0
   15.6663   47.9386  137.6372 C   0  0  0  0  0  0  0  0  0  0  0  0
   14.8833   48.9652  138.1095 C   0  0  0  0  0  0  0  0  0  0  0  0
   13.8146   49.3855  137.3523 C   0  0  0  0  0  0  0  0  0  0  0  0
   13.5784   48.7455  136.1374 C   0  0  0  0  0  0  0  0  0  0  0  0
 38 39  1  0  0  0
 39 37  1  0  0  0
 37 34  1  0  0  0
 34 35  1  0  0  0
 34 36  1  0  0  0
 34 33  1  0  0  0
 33 31  1  0  0  0
 31 32  2  0  0  0
 31 30  1  0  0  0
 30 22  1  0  0  0
 22 23  2  0  0  0
 23 24  1  0  0  0
 24 25  2  0  0  0
 25 21  1  0  0  0
 21 19  1  0  0  0
 19 20  2  0  0  0
 19  1  1  0  0  0
  1  2  2  0  0  0
  2  3  1  0  0  0
  2  4  1  0  0  0
  4 40  1  0  0  0
 40 41  1  0  0  0
 41 42  2  0  0  0
 42 43  1  0  0  0
 43 44  2  0  0  0
 44 45  1  0  0  0
 45 46  2  0  0  0
  4  5  1  0  0  0
  5  6  2  0  0  0
  6  7  1  0  0  0
  7  8  2  0  0  0
  8  9  1  0  0  0
  9 10  2  0  0  0
  8 13  1  0  0  0
 13 14  1  0  0  0
 13 15  2  0  0  0
 25 26  1  0  0  0
 26 28  1  0  0  0
 28 29  1  0  0  0
 26 27  2  0  0  0
 27 22  1  0  0  0
 10  1  1  0  0  0
 46 41  1  0  0  0
 10  5  1  0  0  0
  3 11  1  0  0  0
  3 12  1  0  0  0
 14 16  1  0  0  0
 14 17  1  0  0  0
 15 18  1  0  0  0
M  END
> <minimizedAffinity>
19.39771

> <CNNscore>
0.4261519015

> <CNNaffinity>
7.4676384926

> <CNN_VS>
3.1823482513

> <CNNaffinity_variance>
0.8375836611

$$$$
[H]N=C(c1c([H])c([H])c2c(c1[H])c(C(=O)Oc1c([H])c([H])c(OC(=O)OC(C([H])([H])[H])(C([H])([H])[H])C([H])([H])C([H])([H])C([H])([H])[H])c([H])c1OC([H])([H])[H])c(N([H])[H])n2C([H])([H])c1c([H])c([H])c([H])c([H])c1[H])N([H])[H]


 46 49  0  0  0  0  0  0  0  0999 V2000
    9.5775   47.7458  129.6511 C   0  0  0  0  0  0  0  0  0  0  0  0
    9.0801   48.6777  130.5546 C   0  0  0  0  0  0  0  0  0  0  0  0
    7.9974   49.5445  130.2422 N   0  0  0  0  0  0  0  0  0  0  0  0
    9.8019   48.5581  131.6795 N   0  0  0  0  0  0  0  0  0  0  0  0
   10.7324   47.5974  131.5376 C   0  0  0  0  0  0  0  0  0  0  0  0
   11.7188   47.0510  132.3298 C   0  0  0  0  0  0  0  0  0  0  0  0
   12.5595   46.0335  131.9137 C   0  0  0  0  0  0  0  0  0  0  0  0
   12.4316   45.5181  130.6525 C   0  0  0  0  0  0  0  0  0  0  0  0
   11.4522   46.0439  129.8336 C   0  0  0  0  0  0  0  0  0  0  0  0
   10.6164   47.0580  130.2526 C   0  0  0  0  0  0  0  0  0  0  0  0
    7.1165   49.4167  130.7996 H   0  0  0  0  0  0  0  0  0  0  0  0
    8.0341   50.2795  129.5081 H   0  0  0  0  0  0  0  0  0  0  0  0
   13.2828   44.4476  130.1511 C   0  0  0  0  0  0  0  0  0  0  0  0
   14.0278   44.6205  128.9529 N   0  0  0  0  0  0  0  0  0  0  0  0
   13.3966   43.3274  130.7525 N   0  0  0  0  0  0  0  0  0  0  0  0
   13.5958   44.3606  128.0478 H   0  0  0  0  0  0  0  0  0  0  0  0
   14.9912   45.0057  129.0210 H   0  0  0  0  0  0  0  0  0  0  0  0
   12.9378   43.0260  131.6238 H   0  0  0  0  0  0  0  0  0  0  0  0
    9.0776   47.5386  128.2977 C   0  0  0  0  0  0  0  0  0  0  0  0
    9.0634   48.4971  127.4678 O   0  0  0  0  0  0  0  0  0  0  0  0
    8.5951   46.3365  127.8130 O   0  0  0  0  0  0  0  0  0  0  0  0
    9.2792   42.6877  129.8028 C   0  0  0  0  0  0  0  0  0  0  0  0
   10.0561   43.0563  128.7468 C   0  0  0  0  0  0  0  0  0  0  0  0
    9.8185   44.2626  128.1007 C   0  0  0  0  0  0  0  0  0  0  0  0
    8.8119   45.1247  128.4844 C   0  0  0  0  0  0  0  0  0  0  0  0
    8.0327   44.7333  129.5593 C   0  0  0  0  0  0  0  0  0  0  0  0
    8.2748   43.5349  130.1950 C   0  0  0  0  0  0  0  0  0  0  0  0
    7.0067   45.5357  130.0061 O   0  0  0  0  0  0  0  0  0  0  0  0
    7.0324   46.0241  131.3307 C   0  0  0  0  0  0  0  0  0  0  0  0
    9.4496   41.5023  130.5014 O   0  0  0  0  0  0  0  0  0  0  0  0
   10.4852   41.4192  131.4342 C   0  0  0  0  0  0  0  0  0  0  0  0
   11.1479   40.3623  131.5201 O   0  0  0  0  0  0  0  0  0  0  0  0
   10.8154   42.4599  132.2749 O   0  0  0  0  0  0  0  0  0  0  0  0
    9.9895   43.1226  133.1734 C   0  0  0  0  0  0  0  0  0  0  0  0
    9.5802   44.5108  132.6545 C   0  0  0  0  0  0  0  0  0  0  0  0
    8.6899   42.3541  133.2632 C   0  0  0  0  0  0  0  0  0  0  0  0
   10.6572   43.3777  134.4819 C   0  0  0  0  0  0  0  0  0  0  0  0
   12.3272   45.0685  135.2767 C   0  0  0  0  0  0  0  0  0  0  0  0
   12.0655   43.8381  134.4667 C   0  0  0  0  0  0  0  0  0  0  0  0
    9.6120   49.3417  132.8804 C   0  0  0  0  0  0  0  0  0  0  0  0
    9.0716   48.6060  134.0238 C   0  0  0  0  0  0  0  0  0  0  0  0
    9.3526   47.2678  134.1933 C   0  0  0  0  0  0  0  0  0  0  0  0
    8.8197   46.6231  135.2868 C   0  0  0  0  0  0  0  0  0  0  0  0
    8.0218   47.2407  136.2205 C   0  0  0  0  0  0  0  0  0  0  0  0
    7.7325   48.5764  136.0651 C   0  0  0  0  0  0  0  0  0  0  0  0
    8.2662   49.2400  134.9622 C   0  0  0  0  0  0  0  0  0  0  0  0
 38 39  1  0  0  0
 39 37  1  0  0  0
 37 34  1  0  0  0
 34 35  1  0  0  0
 34 36  1  0  0  0
 34 33  1  0  0  0
 33 31  1  0  0  0
 31 32  2  0  0  0
 31 30  1  0  0  0
 30 22  1  0  0  0
 22 23  2  0  0  0
 23 24  1  0  0  0
 24 25  2  0  0  0
 25 21  1  0  0  0
 21 19  1  0  0  0
 19 20  2  0  0  0
 19  1  1  0  0  0
  1  2  2  0  0  0
  2  3  1  0  0  0
  2  4  1  0  0  0
  4 40  1  0  0  0
 40 41  1  0  0  0
 41 42  2  0  0  0
 42 43  1  0  0  0
 43 44  2  0  0  0
 44 45  1  0  0  0
 45 46  2  0  0  0
  4  5  1  0  0  0
  5  6  2  0  0  0
  6  7  1  0  0  0
  7  8  2  0  0  0
  8  9  1  0  0  0
  9 10  2  0  0  0
  8 13  1  0  0  0
 13 14  1  0  0  0
 13 15  2  0  0  0
 25 26  1  0  0  0
 26 28  1  0  0  0
 28 29  1  0  0  0
 26 27  2  0  0  0
 27 22  1  0  0  0
 10  1  1  0  0  0
 46 41  1  0  0  0
 10  5  1  0  0  0
  3 11  1  0  0  0
  3 12  1  0  0  0
 14 16  1  0  0  0
 14 17  1  0  0  0
 15 18  1  0  0  0
M  END
> <minimizedAffinity>
11.82480

> <CNNscore>
0.4044036269

> <CNNaffinity>
7.4936852455

> <CNN_VS>
3.0304734707

> <CNNaffinity_variance>
0.3496622145

$$$$
[H]N=C(c1c([H])c([H])c2c(c1[H])c(C(=O)Oc1c([H])c([H])c(OC(=O)OC(C([H])([H])[H])(C([H])([H])[H])C([H])([H])C([H])([H])C([H])([H])[H])c([H])c1OC([H])([H])[H])c(N([H])[H])n2C([H])([H])c1c([H])c([H])c([H])c([H])c1[H])N([H])[H]


 46 49  0  0  0  0  0  0  0  0999 V2000
    7.5344   45.9502  131.4255 C   0  0  0  0  0  0  0  0  0  0  0  0
    7.8063   44.9542  132.3562 C   0  0  0  0  0  0  0  0  0  0  0  0
    7.3906   43.6063  132.1785 N   0  0  0  0  0  0  0  0  0  0  0  0
    8.4942   45.5277  133.3555 N   0  0  0  0  0  0  0  0  0  0  0  0
    8.6740   46.8373  133.1075 C   0  0  0  0  0  0  0  0  0  0  0  0
    9.2863   47.8910  133.7509 C   0  0  0  0  0  0  0  0  0  0  0  0
    9.3232   49.1792  133.2469 C   0  0  0  0  0  0  0  0  0  0  0  0
    8.7289   49.4573  132.0459 C   0  0  0  0  0  0  0  0  0  0  0  0
    8.1068   48.4228  131.3757 C   0  0  0  0  0  0  0  0  0  0  0  0
    8.0726   47.1402  131.8819 C   0  0  0  0  0  0  0  0  0  0  0  0
    8.1508   42.8894  132.0731 H   0  0  0  0  0  0  0  0  0  0  0  0
    6.3966   43.3035  132.1486 H   0  0  0  0  0  0  0  0  0  0  0  0
    8.7305   50.7902  131.4584 C   0  0  0  0  0  0  0  0  0  0  0  0
    8.0484   51.0400  130.2366 N   0  0  0  0  0  0  0  0  0  0  0  0
    9.3323   51.7755  132.0027 N   0  0  0  0  0  0  0  0  0  0  0  0
    8.5552   50.9181  129.3413 H   0  0  0  0  0  0  0  0  0  0  0  0
    7.0535   51.3397  130.2781 H   0  0  0  0  0  0  0  0  0  0  0  0
    9.8725   51.7827  132.8795 H   0  0  0  0  0  0  0  0  0  0  0  0
    6.8025   45.7582  130.1797 C   0  0  0  0  0  0  0  0  0  0  0  0
    5.7404   46.4133  129.9549 O   0  0  0  0  0  0  0  0  0  0  0  0
    7.1776   44.8868  129.1734 O   0  0  0  0  0  0  0  0  0  0  0  0
   11.2144   44.1299  128.2391 C   0  0  0  0  0  0  0  0  0  0  0  0
   10.3636   43.1029  128.5146 C   0  0  0  0  0  0  0  0  0  0  0  0
    9.0351   43.3681  128.8210 C   0  0  0  0  0  0  0  0  0  0  0  0
    8.5238   44.6490  128.8609 C   0  0  0  0  0  0  0  0  0  0  0  0
    9.4032   45.6798  128.5782 C   0  0  0  0  0  0  0  0  0  0  0  0
   10.7198   45.4084  128.2752 C   0  0  0  0  0  0  0  0  0  0  0  0
    8.9738   46.9880  128.5964 O   0  0  0  0  0  0  0  0  0  0  0  0
    9.8793   48.0122  128.9493 C   0  0  0  0  0  0  0  0  0  0  0  0
   12.5528   43.9516  127.9245 O   0  0  0  0  0  0  0  0  0  0  0  0
   13.5170   44.3723  128.8425 C   0  0  0  0  0  0  0  0  0  0  0  0
   14.6741   43.9034  128.7728 O   0  0  0  0  0  0  0  0  0  0  0  0
   13.2503   45.2915  129.8339 O   0  0  0  0  0  0  0  0  0  0  0  0
   12.7105   45.0541  131.0912 C   0  0  0  0  0  0  0  0  0  0  0  0
   13.6509   45.5233  132.2134 C   0  0  0  0  0  0  0  0  0  0  0  0
   11.4811   45.9226  131.2402 C   0  0  0  0  0  0  0  0  0  0  0  0
   12.4869   43.6032  131.3523 C   0  0  0  0  0  0  0  0  0  0  0  0
   10.9667   41.6824  131.8799 C   0  0  0  0  0  0  0  0  0  0  0  0
   11.1026   43.1503  131.6250 C   0  0  0  0  0  0  0  0  0  0  0  0
    8.9815   44.8439  134.5334 C   0  0  0  0  0  0  0  0  0  0  0  0
   10.4370   44.7303  134.6287 C   0  0  0  0  0  0  0  0  0  0  0  0
   11.0323   43.5078  134.8514 C   0  0  0  0  0  0  0  0  0  0  0  0
   12.4056   43.4563  134.9316 C   0  0  0  0  0  0  0  0  0  0  0  0
   13.2177   44.5579  134.8015 C   0  0  0  0  0  0  0  0  0  0  0  0
   12.6382   45.7854  134.5786 C   0  0  0  0  0  0  0  0  0  0  0  0
   11.2488   45.8503  134.4954 C   0  0  0  0  0  0  0  0  0  0  0  0
 38 39  1  0  0  0
 39 37  1  0  0  0
 37 34  1  0  0  0
 34 35  1  0  0  0
 34 36  1  0  0  0
 34 33  1  0  0  0
 33 31  1  0  0  0
 31 32  2  0  0  0
 31 30  1  0  0  0
 30 22  1  0  0  0
 22 23  2  0  0  0
 23 24  1  0  0  0
 24 25  2  0  0  0
 25 21  1  0  0  0
 21 19  1  0  0  0
 19 20  2  0  0  0
 19  1  1  0  0  0
  1  2  2  0  0  0
  2  3  1  0  0  0
  2  4  1  0  0  0
  4 40  1  0  0  0
 40 41  1  0  0  0
 41 42  2  0  0  0
 42 43  1  0  0  0
 43 44  2  0  0  0
 44 45  1  0  0  0
 45 46  2  0  0  0
  4  5  1  0  0  0
  5  6  2  0  0  0
  6  7  1  0  0  0
  7  8  2  0  0  0
  8  9  1  0  0  0
  9 10  2  0  0  0
  8 13  1  0  0  0
 13 14  1  0  0  0
 13 15  2  0  0  0
 25 26  1  0  0  0
 26 28  1  0  0  0
 28 29  1  0  0  0
 26 27  2  0  0  0
 27 22  1  0  0  0
 10  1  1  0  0  0
 46 41  1  0  0  0
 10  5  1  0  0  0
  3 11  1  0  0  0
  3 12  1  0  0  0
 14 16  1  0  0  0
 14 17  1  0  0  0
 15 18  1  0  0  0
M  END
> <minimizedAffinity>
7.27839

> <CNNscore>
0.3877241611

> <CNNaffinity>
7.3261671066

> <CNN_VS>
2.8405320644

> <CNNaffinity_variance>
0.3079650402

$$$$
[H]N=C(c1c([H])c([H])c2c(c1[H])c(C(=O)Oc1c([H])c([H])c(OC(=O)OC(C([H])([H])[H])(C([H])([H])[H])C([H])([H])C([H])([H])C([H])([H])[H])c([H])c1OC([H])([H])[H])c(N([H])[H])n2C([H])([H])c1c([H])c([H])c([H])c([H])c1[H])N([H])[H]


 46 49  0  0  0  0  0  0  0  0999 V2000
    8.5916   44.3568  130.2327 C   0  0  0  0  0  0  0  0  0  0  0  0
    7.7066   45.3168  129.7558 C   0  0  0  0  0  0  0  0  0  0  0  0
    6.3081   45.2595  130.0048 N   0  0  0  0  0  0  0  0  0  0  0  0
    8.4332   46.2187  129.0782 N   0  0  0  0  0  0  0  0  0  0  0  0
    9.7351   45.8816  129.1003 C   0  0  0  0  0  0  0  0  0  0  0  0
   10.9030   46.4125  128.5971 C   0  0  0  0  0  0  0  0  0  0  0  0
   12.1479   45.8370  128.7816 C   0  0  0  0  0  0  0  0  0  0  0  0
   12.2617   44.6767  129.4982 C   0  0  0  0  0  0  0  0  0  0  0  0
   11.1097   44.1192  130.0162 C   0  0  0  0  0  0  0  0  0  0  0  0
    9.8709   44.6964  129.8299 C   0  0  0  0  0  0  0  0  0  0  0  0
    5.9021   46.0324  130.5887 H   0  0  0  0  0  0  0  0  0  0  0  0
    5.6838   44.5096  129.6465 H   0  0  0  0  0  0  0  0  0  0  0  0
   13.5404   44.0184  129.7298 C   0  0  0  0  0  0  0  0  0  0  0  0
   14.5752   44.0919  128.7582 N   0  0  0  0  0  0  0  0  0  0  0  0
   13.7855   43.3586  130.7947 N   0  0  0  0  0  0  0  0  0  0  0  0
   14.6232   43.3705  128.0161 H   0  0  0  0  0  0  0  0  0  0  0  0
   15.2582   44.8734  128.8214 H   0  0  0  0  0  0  0  0  0  0  0  0
   13.1629   43.1993  131.5994 H   0  0  0  0  0  0  0  0  0  0  0  0
    8.2195   43.1910  131.0245 C   0  0  0  0  0  0  0  0  0  0  0  0
    7.7336   42.1643  130.4611 O   0  0  0  0  0  0  0  0  0  0  0  0
    8.3540   43.0976  132.3978 O   0  0  0  0  0  0  0  0  0  0  0  0
    9.7927   46.3102  134.7108 C   0  0  0  0  0  0  0  0  0  0  0  0
    8.5370   46.3440  134.1849 C   0  0  0  0  0  0  0  0  0  0  0  0
    8.0765   45.2771  133.4242 C   0  0  0  0  0  0  0  0  0  0  0  0
    8.8455   44.1602  133.1696 C   0  0  0  0  0  0  0  0  0  0  0  0
   10.1187   44.1437  133.7122 C   0  0  0  0  0  0  0  0  0  0  0  0
   10.5683   45.2062  134.4657 C   0  0  0  0  0  0  0  0  0  0  0  0
   10.9512   43.0664  133.5058 O   0  0  0  0  0  0  0  0  0  0  0  0
   10.7395   42.2279  132.3897 C   0  0  0  0  0  0  0  0  0  0  0  0
   10.3281   47.3320  135.4800 O   0  0  0  0  0  0  0  0  0  0  0  0
   11.1573   48.2698  134.8620 C   0  0  0  0  0  0  0  0  0  0  0  0
   10.6439   49.2032  134.2071 O   0  0  0  0  0  0  0  0  0  0  0  0
   12.5320   48.2147  134.9406 O   0  0  0  0  0  0  0  0  0  0  0  0
   13.3555   48.8218  135.8795 C   0  0  0  0  0  0  0  0  0  0  0  0
   13.8299   50.2072  135.4109 C   0  0  0  0  0  0  0  0  0  0  0  0
   12.5254   49.1034  137.1122 C   0  0  0  0  0  0  0  0  0  0  0  0
   14.6046   48.0471  136.1300 C   0  0  0  0  0  0  0  0  0  0  0  0
   16.1518   47.0465  137.8282 C   0  0  0  0  0  0  0  0  0  0  0  0
   15.2548   48.1840  137.4545 C   0  0  0  0  0  0  0  0  0  0  0  0
    7.9032   47.3919  128.4184 C   0  0  0  0  0  0  0  0  0  0  0  0
    7.8562   48.6002  129.2419 C   0  0  0  0  0  0  0  0  0  0  0  0
    6.8271   49.5056  129.1011 C   0  0  0  0  0  0  0  0  0  0  0  0
    6.8300   50.6257  129.9014 C   0  0  0  0  0  0  0  0  0  0  0  0
    7.8037   50.8918  130.8349 C   0  0  0  0  0  0  0  0  0  0  0  0
    8.8374   49.9973  130.9873 C   0  0  0  0  0  0  0  0  0  0  0  0
    8.8454   48.8596  130.1829 C   0  0  0  0  0  0  0  0  0  0  0  0
 38 39  1  0  0  0
 39 37  1  0  0  0
 37 34  1  0  0  0
 34 35  1  0  0  0
 34 36  1  0  0  0
 34 33  1  0  0  0
 33 31  1  0  0  0
 31 32  2  0  0  0
 31 30  1  0  0  0
 30 22  1  0  0  0
 22 23  2  0  0  0
 23 24  1  0  0  0
 24 25  2  0  0  0
 25 21  1  0  0  0
 21 19  1  0  0  0
 19 20  2  0  0  0
 19  1  1  0  0  0
  1  2  2  0  0  0
  2  3  1  0  0  0
  2  4  1  0  0  0
  4 40  1  0  0  0
 40 41  1  0  0  0
 41 42  2  0  0  0
 42 43  1  0  0  0
 43 44  2  0  0  0
 44 45  1  0  0  0
 45 46  2  0  0  0
  4  5  1  0  0  0
  5  6  2  0  0  0
  6  7  1  0  0  0
  7  8  2  0  0  0
  8  9  1  0  0  0
  9 10  2  0  0  0
  8 13  1  0  0  0
 13 14  1  0  0  0
 13 15  2  0  0  0
 25 26  1  0  0  0
 26 28  1  0  0  0
 28 29  1  0  0  0
 26 27  2  0  0  0
 27 22  1  0  0  0
 10  1  1  0  0  0
 46 41  1  0  0  0
 10  5  1  0  0  0
  3 11  1  0  0  0
  3 12  1  0  0  0
 14 16  1  0  0  0
 14 17  1  0  0  0
 15 18  1  0  0  0
M  END
> <minimizedAffinity>
11.83373

> <CNNscore>
0.3502304852

> <CNNaffinity>
7.7380399704

> <CNN_VS>
2.7100975513

> <CNNaffinity_variance>
0.6057515740

$$$$
[H]N=C(c1c([H])c([H])c2c(c1[H])c(C(=O)Oc1c([H])c([H])c(OC(=O)OC(C([H])([H])[H])(C([H])([H])[H])C([H])([H])C([H])([H])C([H])([H])[H])c([H])c1OC([H])([H])[H])c(N([H])[H])n2C([H])([H])c1c([H])c([H])c([H])c([H])c1[H])N([H])[H]


 46 49  0  0  0  0  0  0  0  0999 V2000
   10.1968   42.6669  130.6418 C   0  0  0  0  0  0  0  0  0  0  0  0
    8.9201   43.0213  130.2218 C   0  0  0  0  0  0  0  0  0  0  0  0
    7.7472   42.3951  130.7253 N   0  0  0  0  0  0  0  0  0  0  0  0
    9.0621   44.0054  129.3207 N   0  0  0  0  0  0  0  0  0  0  0  0
   10.3640   44.2952  129.1466 C   0  0  0  0  0  0  0  0  0  0  0  0
   11.0855   45.1846  128.3802 C   0  0  0  0  0  0  0  0  0  0  0  0
   12.4664   45.2712  128.4035 C   0  0  0  0  0  0  0  0  0  0  0  0
   13.1865   44.4433  129.2213 C   0  0  0  0  0  0  0  0  0  0  0  0
   12.4930   43.5405  130.0025 C   0  0  0  0  0  0  0  0  0  0  0  0
   11.1164   43.4577  129.9761 C   0  0  0  0  0  0  0  0  0  0  0  0
    7.0898   43.0011  131.2763 H   0  0  0  0  0  0  0  0  0  0  0  0
    7.5145   41.3927  130.5785 H   0  0  0  0  0  0  0  0  0  0  0  0
   14.6408   44.4816  129.2945 C   0  0  0  0  0  0  0  0  0  0  0  0
   15.4269   43.6508  128.4506 N   0  0  0  0  0  0  0  0  0  0  0  0
   15.2637   45.2476  130.1035 N   0  0  0  0  0  0  0  0  0  0  0  0
   15.6861   42.7018  128.7757 H   0  0  0  0  0  0  0  0  0  0  0  0
   15.7206   44.0229  127.5251 H   0  0  0  0  0  0  0  0  0  0  0  0
   14.8650   45.9111  130.7828 H   0  0  0  0  0  0  0  0  0  0  0  0
   10.5014   41.6317  131.6218 C   0  0  0  0  0  0  0  0  0  0  0  0
   10.8251   40.4665  131.2410 O   0  0  0  0  0  0  0  0  0  0  0  0
   10.4683   41.8123  132.9925 O   0  0  0  0  0  0  0  0  0  0  0  0
    9.7542   45.5799  134.7351 C   0  0  0  0  0  0  0  0  0  0  0  0
   11.0229   45.0969  134.6267 C   0  0  0  0  0  0  0  0  0  0  0  0
   11.2427   43.8528  134.0496 C   0  0  0  0  0  0  0  0  0  0  0  0
   10.2164   43.0649  133.5704 C   0  0  0  0  0  0  0  0  0  0  0  0
    8.9341   43.5722  133.6893 C   0  0  0  0  0  0  0  0  0  0  0  0
    8.7243   44.8074  134.2630 C   0  0  0  0  0  0  0  0  0  0  0  0
    7.8531   42.8494  133.2362 O   0  0  0  0  0  0  0  0  0  0  0  0
    7.4462   41.6936  133.9376 C   0  0  0  0  0  0  0  0  0  0  0  0
    9.4491   46.8101  135.2971 O   0  0  0  0  0  0  0  0  0  0  0  0
    8.8010   47.7629  134.5087 C   0  0  0  0  0  0  0  0  0  0  0  0
    8.0636   48.6112  135.0565 O   0  0  0  0  0  0  0  0  0  0  0  0
    8.9375   47.8129  133.1383 O   0  0  0  0  0  0  0  0  0  0  0  0
   10.1092   47.9423  132.4043 C   0  0  0  0  0  0  0  0  0  0  0  0
   11.3377   48.1025  133.3147 C   0  0  0  0  0  0  0  0  0  0  0  0
   10.3465   46.6387  131.6748 C   0  0  0  0  0  0  0  0  0  0  0  0
   10.1082   49.1542  131.5356 C   0  0  0  0  0  0  0  0  0  0  0  0
    9.6393   51.0911  133.0546 C   0  0  0  0  0  0  0  0  0  0  0  0
    9.1931   50.2643  131.8904 C   0  0  0  0  0  0  0  0  0  0  0  0
    7.9772   44.6699  128.6322 C   0  0  0  0  0  0  0  0  0  0  0  0
    7.6824   46.0249  129.0986 C   0  0  0  0  0  0  0  0  0  0  0  0
    8.0456   47.1205  128.3459 C   0  0  0  0  0  0  0  0  0  0  0  0
    7.7436   48.3733  128.8302 C   0  0  0  0  0  0  0  0  0  0  0  0
    7.0989   48.5928  130.0245 C   0  0  0  0  0  0  0  0  0  0  0  0
    6.7297   47.5091  130.7869 C   0  0  0  0  0  0  0  0  0  0  0  0
    7.0299   46.2358  130.3073 C   0  0  0  0  0  0  0  0  0  0  0  0
 38 39  1  0  0  0
 39 37  1  0  0  0
 37 34  1  0  0  0
 34 35  1  0  0  0
 34 36  1  0  0  0
 34 33  1  0  0  0
 33 31  1  0  0  0
 31 32  2  0  0  0
 31 30  1  0  0  0
 30 22  1  0  0  0
 22 23  2  0  0  0
 23 24  1  0  0  0
 24 25  2  0  0  0
 25 21  1  0  0  0
 21 19  1  0  0  0
 19 20  2  0  0  0
 19  1  1  0  0  0
  1  2  2  0  0  0
  2  3  1  0  0  0
  2  4  1  0  0  0
  4 40  1  0  0  0
 40 41  1  0  0  0
 41 42  2  0  0  0
 42 43  1  0  0  0
 43 44  2  0  0  0
 44 45  1  0  0  0
 45 46  2  0  0  0
  4  5  1  0  0  0
  5  6  2  0  0  0
  6  7  1  0  0  0
  7  8  2  0  0  0
  8  9  1  0  0  0
  9 10  2  0  0  0
  8 13  1  0  0  0
 13 14  1  0  0  0
 13 15  2  0  0  0
 25 26  1  0  0  0
 26 28  1  0  0  0
 28 29  1  0  0  0
 26 27  2  0  0  0
 27 22  1  0  0  0
 10  1  1  0  0  0
 46 41  1  0  0  0
 10  5  1  0  0  0
  3 11  1  0  0  0
  3 12  1  0  0  0
 14 16  1  0  0  0
 14 17  1  0  0  0
 15 18  1  0  0  0
M  END
> <minimizedAffinity>
6.69562

> <CNNscore>
0.3497147560

> <CNNaffinity>
7.5663743019

> <CNN_VS>
2.6460726261

> <CNNaffinity_variance>
0.4197779596

$$$$
[H]N=C(c1c([H])c([H])c2c(c1[H])c(C(=O)Oc1c([H])c([H])c(OC(=O)OC(C([H])([H])[H])(C([H])([H])[H])C([H])([H])C([H])([H])C([H])([H])[H])c([H])c1OC([H])([H])[H])c(N([H])[H])n2C([H])([H])c1c([H])c([H])c([H])c([H])c1[H])N([H])[H]


 46 49  0  0  0  0  0  0  0  0999 V2000
   10.0486   43.3885  131.3100 C   0  0  0  0  0  0  0  0  0  0  0  0
    8.7706   43.5891  130.8016 C   0  0  0  0  0  0  0  0  0  0  0  0
    7.5957   43.2832  131.5414 N   0  0  0  0  0  0  0  0  0  0  0  0
    8.9139   44.0975  129.5681 N   0  0  0  0  0  0  0  0  0  0  0  0
   10.2178   44.2309  129.2664 C   0  0  0  0  0  0  0  0  0  0  0  0
   10.9415   44.6848  128.1850 C   0  0  0  0  0  0  0  0  0  0  0  0
   12.3245   44.7133  128.1463 C   0  0  0  0  0  0  0  0  0  0  0  0
   13.0446   44.2742  129.2240 C   0  0  0  0  0  0  0  0  0  0  0  0
   12.3489   43.8131  130.3240 C   0  0  0  0  0  0  0  0  0  0  0  0
   10.9703   43.7866  130.3581 C   0  0  0  0  0  0  0  0  0  0  0  0
    6.9770   44.0923  131.7977 H   0  0  0  0  0  0  0  0  0  0  0  0
    7.3260   42.3227  131.8335 H   0  0  0  0  0  0  0  0  0  0  0  0
   14.5010   44.2766  129.2497 C   0  0  0  0  0  0  0  0  0  0  0  0
   15.2185   43.0854  129.5441 N   0  0  0  0  0  0  0  0  0  0  0  0
   15.1862   45.3273  129.0137 N   0  0  0  0  0  0  0  0  0  0  0  0
   15.4517   42.8669  130.5296 H   0  0  0  0  0  0  0  0  0  0  0  0
   15.4899   42.4641  128.7558 H   0  0  0  0  0  0  0  0  0  0  0  0
   14.8422   46.2706  128.7846 H   0  0  0  0  0  0  0  0  0  0  0  0
   10.3524   42.8475  132.6290 C   0  0  0  0  0  0  0  0  0  0  0  0
   10.5966   41.6116  132.7721 O   0  0  0  0  0  0  0  0  0  0  0  0
   10.4010   43.5931  133.7927 O   0  0  0  0  0  0  0  0  0  0  0  0
   10.8672   47.7790  133.7430 C   0  0  0  0  0  0  0  0  0  0  0  0
   11.9539   46.9627  133.8294 C   0  0  0  0  0  0  0  0  0  0  0  0
   11.7843   45.5843  133.8447 C   0  0  0  0  0  0  0  0  0  0  0  0
   10.5419   44.9882  133.7752 C   0  0  0  0  0  0  0  0  0  0  0  0
    9.4495   45.8337  133.6878 C   0  0  0  0  0  0  0  0  0  0  0  0
    9.6261   47.2002  133.6732 C   0  0  0  0  0  0  0  0  0  0  0  0
    8.1739   45.3201  133.6145 O   0  0  0  0  0  0  0  0  0  0  0  0
    7.3549   45.3259  134.7646 C   0  0  0  0  0  0  0  0  0  0  0  0
   10.9493   49.1629  133.7218 O   0  0  0  0  0  0  0  0  0  0  0  0
    9.7932   49.8970  133.4502 C   0  0  0  0  0  0  0  0  0  0  0  0
    8.9269   50.0267  134.3426 O   0  0  0  0  0  0  0  0  0  0  0  0
    9.5589   50.4927  132.2299 O   0  0  0  0  0  0  0  0  0  0  0  0
    8.9038   49.9523  131.1312 C   0  0  0  0  0  0  0  0  0  0  0  0
    8.0857   48.7071  131.5108 C   0  0  0  0  0  0  0  0  0  0  0  0
    7.8717   50.9555  130.6663 C   0  0  0  0  0  0  0  0  0  0  0  0
    9.8477   49.4900  130.0736 C   0  0  0  0  0  0  0  0  0  0  0  0
   10.7040   47.3140  129.1732 C   0  0  0  0  0  0  0  0  0  0  0  0
   10.6322   48.2595  130.3304 C   0  0  0  0  0  0  0  0  0  0  0  0
    7.8285   44.4585  128.6826 C   0  0  0  0  0  0  0  0  0  0  0  0
    7.2752   45.7968  128.8909 C   0  0  0  0  0  0  0  0  0  0  0  0
    7.8004   46.8841  128.2272 C   0  0  0  0  0  0  0  0  0  0  0  0
    7.2421   48.1211  128.4584 C   0  0  0  0  0  0  0  0  0  0  0  0
    6.1882   48.3325  129.3156 C   0  0  0  0  0  0  0  0  0  0  0  0
    5.6530   47.2568  129.9852 C   0  0  0  0  0  0  0  0  0  0  0  0
    6.2095   45.9995  129.7594 C   0  0  0  0  0  0  0  0  0  0  0  0
 38 39  1  0  0  0
 39 37  1  0  0  0
 37 34  1  0  0  0
 34 35  1  0  0  0
 34 36  1  0  0  0
 34 33  1  0  0  0
 33 31  1  0  0  0
 31 32  2  0  0  0
 31 30  1  0  0  0
 30 22  1  0  0  0
 22 23  2  0  0  0
 23 24  1  0  0  0
 24 25  2  0  0  0
 25 21  1  0  0  0
 21 19  1  0  0  0
 19 20  2  0  0  0
 19  1  1  0  0  0
  1  2  2  0  0  0
  2  3  1  0  0  0
  2  4  1  0  0  0
  4 40  1  0  0  0
 40 41  1  0  0  0
 41 42  2  0  0  0
 42 43  1  0  0  0
 43 44  2  0  0  0
 44 45  1  0  0  0
 45 46  2  0  0  0
  4  5  1  0  0  0
  5  6  2  0  0  0
  6  7  1  0  0  0
  7  8  2  0  0  0
  8  9  1  0  0  0
  9 10  2  0  0  0
  8 13  1  0  0  0
 13 14  1  0  0  0
 13 15  2  0  0  0
 25 26  1  0  0  0
 26 28  1  0  0  0
 28 29  1  0  0  0
 26 27  2  0  0  0
 27 22  1  0  0  0
 10  1  1  0  0  0
 46 41  1  0  0  0
 10  5  1  0  0  0
  3 11  1  0  0  0
  3 12  1  0  0  0
 14 16  1  0  0  0
 14 17  1  0  0  0
 15 18  1  0  0  0
M  END
> <minimizedAffinity>
7.58765

> <CNNscore>
0.3451725841

> <CNNaffinity>
7.4276528358

> <CNN_VS>
2.5638220310

> <CNNaffinity_variance>
0.2644430697

$$$$
[H]OC([H])([H])[C@@]1([H])O[C@]([H])(n2c([H])nc3c(N([H])c4c([H])c([H])c(-c5c([H])c([H])c([H])c([H])c5[H])c([H])c4[H])nc([H])nc32)[C@@]([H])(O[H])[C@]1([H])O[H]


 35 39  0  0  0  0  0  0  0  0999 V2000
    8.1692   46.2415  129.9770 N   0  0  0  0  0  0  0  0  0  0  0  0
    8.5728   46.5138  131.2296 C   0  0  0  0  0  0  0  0  0  0  0  0
    9.4652   45.5944  131.6447 N   0  0  0  0  0  0  0  0  0  0  0  0
    9.6207   44.7387  130.6410 C   0  0  0  0  0  0  0  0  0  0  0  0
   10.4059   43.5881  130.4774 C   0  0  0  0  0  0  0  0  0  0  0  0
   10.2991   42.9700  129.3010 N   0  0  0  0  0  0  0  0  0  0  0  0
    9.5130   43.3665  128.2957 C   0  0  0  0  0  0  0  0  0  0  0  0
    8.7505   44.4655  128.4261 N   0  0  0  0  0  0  0  0  0  0  0  0
    8.8230   45.1258  129.5972 C   0  0  0  0  0  0  0  0  0  0  0  0
    5.6789   48.5182  129.6962 C   0  0  0  0  0  0  0  0  0  0  0  0
    6.0267   47.2005  129.7993 O   0  0  0  0  0  0  0  0  0  0  0  0
    7.2231   46.9854  129.1783 C   0  0  0  0  0  0  0  0  0  0  0  0
    7.7751   48.3120  128.7040 C   0  0  0  0  0  0  0  0  0  0  0  0
    8.4564   48.1883  127.4958 O   0  0  0  0  0  0  0  0  0  0  0  0
    6.4808   49.0954  128.5289 C   0  0  0  0  0  0  0  0  0  0  0  0
    6.6559   50.4517  128.6284 O   0  0  0  0  0  0  0  0  0  0  0  0
    9.3441   48.6096  127.6132 H   0  0  0  0  0  0  0  0  0  0  0  0
    6.8049   50.8462  127.7498 H   0  0  0  0  0  0  0  0  0  0  0  0
    4.0456   50.1188  129.2003 O   0  0  0  0  0  0  0  0  0  0  0  0
    4.2008   48.7524  129.5248 C   0  0  0  0  0  0  0  0  0  0  0  0
    4.1675   50.6071  130.0748 H   0  0  0  0  0  0  0  0  0  0  0  0
   11.2440   43.2090  131.5493 N   0  0  0  0  0  0  0  0  0  0  0  0
   11.5358   42.1837  131.6540 H   0  0  0  0  0  0  0  0  0  0  0  0
   11.7402   44.0833  132.5056 C   0  0  0  0  0  0  0  0  0  0  0  0
   11.6585   43.8816  133.8474 C   0  0  0  0  0  0  0  0  0  0  0  0
   12.2238   44.8215  134.7325 C   0  0  0  0  0  0  0  0  0  0  0  0
   12.8616   45.9485  134.2809 C   0  0  0  0  0  0  0  0  0  0  0  0
   12.9402   46.1472  132.9217 C   0  0  0  0  0  0  0  0  0  0  0  0
   12.3932   45.2372  132.0645 C   0  0  0  0  0  0  0  0  0  0  0  0
   13.4420   46.9108  135.1965 C   0  0  0  0  0  0  0  0  0  0  0  0
   14.6775   46.7269  135.7848 C   0  0  0  0  0  0  0  0  0  0  0  0
   15.2350   47.6288  136.6518 C   0  0  0  0  0  0  0  0  0  0  0  0
   14.5617   48.7854  136.9767 C   0  0  0  0  0  0  0  0  0  0  0  0
   13.3197   48.9902  136.3976 C   0  0  0  0  0  0  0  0  0  0  0  0
   12.7604   48.0794  135.5240 C   0  0  0  0  0  0  0  0  0  0  0  0
 19 20  1  0  0  0
 20 10  1  0  0  0
 10 11  1  0  0  0
 11 12  1  0  0  0
 12 13  1  0  0  0
 13 14  1  0  0  0
 13 15  1  0  0  0
 15 16  1  0  0  0
 12  1  1  0  0  0
  1  2  1  0  0  0
  2  3  2  0  0  0
  3  4  1  0  0  0
  4  5  2  0  0  0
  5 22  1  0  0  0
 22 24  1  0  0  0
 24 25  2  0  0  0
 25 26  1  0  0  0
 26 27  2  0  0  0
 27 28  1  0  0  0
 28 29  2  0  0  0
 27 30  1  0  0  0
 30 31  2  0  0  0
 31 32  1  0  0  0
 32 33  2  0  0  0
 33 34  1  0  0  0
 34 35  2  0  0  0
  5  6  1  0  0  0
  6  7  2  0  0  0
  7  8  1  0  0  0
  8  9  2  0  0  0
 15 10  1  0  0  0
  9  1  1  0  0  0
  9  4  1  0  0  0
 29 24  1  0  0  0
 35 30  1  0  0  0
 19 21  1  0  0  0
 14 17  1  0  0  0
 16 18  1  0  0  0
 22 23  1  0  0  0
M  END
> <minimizedAffinity>
11.38373

> <CNNscore>
0.4399970472

> <CNNaffinity>
7.1173639297

> <CNN_VS>
3.1316192150

> <CNNaffinity_variance>
1.3809750080

$$$$
[H]OC([H])([H])[C@@]1([H])O[C@]([H])(n2c([H])nc3c(N([H])c4c([H])c([H])c(-c5c([H])c([H])c([H])c([H])c5[H])c([H])c4[H])nc([H])nc32)[C@@]([H])(O[H])[C@]1([H])O[H]


 35 39  0  0  0  0  0  0  0  0999 V2000
    7.1013   52.6566  128.2021 N   0  0  0  0  0  0  0  0  0  0  0  0
    6.8902   52.7484  129.5261 C   0  0  0  0  0  0  0  0  0  0  0  0
    6.8070   51.5206  130.0737 N   0  0  0  0  0  0  0  0  0  0  0  0
    6.9677   50.6527  129.0813 C   0  0  0  0  0  0  0  0  0  0  0  0
    6.9807   49.2512  129.0284 C   0  0  0  0  0  0  0  0  0  0  0  0
    7.1741   48.7135  127.8239 N   0  0  0  0  0  0  0  0  0  0  0  0
    7.3515   49.4062  126.6950 C   0  0  0  0  0  0  0  0  0  0  0  0
    7.3436   50.7501  126.7176 N   0  0  0  0  0  0  0  0  0  0  0  0
    7.1516   51.3414  127.9118 C   0  0  0  0  0  0  0  0  0  0  0  0
    8.1497   53.8596  125.2159 C   0  0  0  0  0  0  0  0  0  0  0  0
    8.4121   53.6983  126.5474 O   0  0  0  0  0  0  0  0  0  0  0  0
    7.2483   53.7410  127.2594 C   0  0  0  0  0  0  0  0  0  0  0  0
    6.0865   53.8378  126.2948 C   0  0  0  0  0  0  0  0  0  0  0  0
    5.0569   54.6275  126.8003 O   0  0  0  0  0  0  0  0  0  0  0  0
    6.7714   54.5147  125.1149 C   0  0  0  0  0  0  0  0  0  0  0  0
    6.1534   54.2618  123.9173 O   0  0  0  0  0  0  0  0  0  0  0  0
    4.2201   54.1043  126.7259 H   0  0  0  0  0  0  0  0  0  0  0  0
    5.5033   54.9577  123.7103 H   0  0  0  0  0  0  0  0  0  0  0  0
    8.9227   54.4850  123.0977 O   0  0  0  0  0  0  0  0  0  0  0  0
    9.1962   54.6493  124.4741 C   0  0  0  0  0  0  0  0  0  0  0  0
    9.2582   53.5595  122.8767 H   0  0  0  0  0  0  0  0  0  0  0  0
    6.8146   48.5483  130.2422 N   0  0  0  0  0  0  0  0  0  0  0  0
    6.0048   48.8056  130.8945 H   0  0  0  0  0  0  0  0  0  0  0  0
    7.6367   47.5163  130.6712 C   0  0  0  0  0  0  0  0  0  0  0  0
    7.3018   46.1995  130.6308 C   0  0  0  0  0  0  0  0  0  0  0  0
    8.2261   45.2282  131.0652 C   0  0  0  0  0  0  0  0  0  0  0  0
    9.4687   45.5703  131.5344 C   0  0  0  0  0  0  0  0  0  0  0  0
    9.8011   46.9048  131.5735 C   0  0  0  0  0  0  0  0  0  0  0  0
    8.9065   47.8453  131.1528 C   0  0  0  0  0  0  0  0  0  0  0  0
   10.4152   44.5663  131.9786 C   0  0  0  0  0  0  0  0  0  0  0  0
   11.5056   44.8697  132.7695 C   0  0  0  0  0  0  0  0  0  0  0  0
   12.4066   43.9295  133.1941 C   0  0  0  0  0  0  0  0  0  0  0  0
   12.2512   42.6089  132.8357 C   0  0  0  0  0  0  0  0  0  0  0  0
   11.1634   42.2821  132.0421 C   0  0  0  0  0  0  0  0  0  0  0  0
   10.2570   43.2318  131.6157 C   0  0  0  0  0  0  0  0  0  0  0  0
 19 20  1  0  0  0
 20 10  1  0  0  0
 10 11  1  0  0  0
 11 12  1  0  0  0
 12 13  1  0  0  0
 13 14  1  0  0  0
 13 15  1  0  0  0
 15 16  1  0  0  0
 12  1  1  0  0  0
  1  2  1  0  0  0
  2  3  2  0  0  0
  3  4  1  0  0  0
  4  5  2  0  0  0
  5 22  1  0  0  0
 22 24  1  0  0  0
 24 25  2  0  0  0
 25 26  1  0  0  0
 26 27  2  0  0  0
 27 28  1  0  0  0
 28 29  2  0  0  0
 27 30  1  0  0  0
 30 31  2  0  0  0
 31 32  1  0  0  0
 32 33  2  0  0  0
 33 34  1  0  0  0
 34 35  2  0  0  0
  5  6  1  0  0  0
  6  7  2  0  0  0
  7  8  1  0  0  0
  8  9  2  0  0  0
 15 10  1  0  0  0
  9  1  1  0  0  0
  9  4  1  0  0  0
 29 24  1  0  0  0
 35 30  1  0  0  0
 19 21  1  0  0  0
 14 17  1  0  0  0
 16 18  1  0  0  0
 22 23  1  0  0  0
M  END
> <minimizedAffinity>
11.74219

> <CNNscore>
0.3412376642

> <CNNaffinity>
6.3831777573

> <CNN_VS>
2.1781806946

> <CNNaffinity_variance>
0.5789490938

$$$$
[H]OC([H])([H])[C@@]1([H])O[C@]([H])(n2c([H])nc3c(N([H])c4c([H])c([H])c(-c5c([H])c([H])c([H])c([H])c5[H])c([H])c4[H])nc([H])nc32)[C@@]([H])(O[H])[C@]1([H])O[H]


 35 39  0  0  0  0  0  0  0  0999 V2000
    8.6615   46.5735  130.3910 N   0  0  0  0  0  0  0  0  0  0  0  0
    7.5246   46.7064  129.6870 C   0  0  0  0  0  0  0  0  0  0  0  0
    7.1002   47.9843  129.7187 N   0  0  0  0  0  0  0  0  0  0  0  0
    7.9813   48.6569  130.4503 C   0  0  0  0  0  0  0  0  0  0  0  0
    8.0774   50.0022  130.8350 C   0  0  0  0  0  0  0  0  0  0  0  0
    9.1281   50.3202  131.5914 N   0  0  0  0  0  0  0  0  0  0  0  0
   10.0696   49.4620  131.9950 C   0  0  0  0  0  0  0  0  0  0  0  0
   10.0015   48.1673  131.6406 N   0  0  0  0  0  0  0  0  0  0  0  0
    8.9577   47.7957  130.8758 C   0  0  0  0  0  0  0  0  0  0  0  0
    9.1509   43.6086  131.9510 C   0  0  0  0  0  0  0  0  0  0  0  0
    9.4465   44.9418  131.8952 O   0  0  0  0  0  0  0  0  0  0  0  0
    9.4297   45.3681  130.5986 C   0  0  0  0  0  0  0  0  0  0  0  0
    8.9773   44.2275  129.7131 C   0  0  0  0  0  0  0  0  0  0  0  0
    9.6255   44.2389  128.4807 O   0  0  0  0  0  0  0  0  0  0  0  0
    9.4192   43.0394  130.5571 C   0  0  0  0  0  0  0  0  0  0  0  0
    8.6969   41.9017  130.3036 O   0  0  0  0  0  0  0  0  0  0  0  0
    8.9283   44.1885  127.7801 H   0  0  0  0  0  0  0  0  0  0  0  0
    9.1370   41.3569  129.6259 H   0  0  0  0  0  0  0  0  0  0  0  0
   10.7280   41.9242  132.3395 O   0  0  0  0  0  0  0  0  0  0  0  0
    9.9066   42.8551  133.0140 C   0  0  0  0  0  0  0  0  0  0  0  0
   10.1022   41.1848  132.0573 H   0  0  0  0  0  0  0  0  0  0  0  0
    7.0799   50.8887  130.3721 N   0  0  0  0  0  0  0  0  0  0  0  0
    6.2074   51.0597  130.9695 H   0  0  0  0  0  0  0  0  0  0  0  0
    7.1407   51.5821  129.1719 C   0  0  0  0  0  0  0  0  0  0  0  0
    6.9915   52.9279  129.0534 C   0  0  0  0  0  0  0  0  0  0  0  0
    7.1017   53.5359  127.7867 C   0  0  0  0  0  0  0  0  0  0  0  0
    7.3570   52.8065  126.6535 C   0  0  0  0  0  0  0  0  0  0  0  0
    7.5061   51.4446  126.7802 C   0  0  0  0  0  0  0  0  0  0  0  0
    7.3998   50.8558  128.0065 C   0  0  0  0  0  0  0  0  0  0  0  0
    7.4704   53.4380  125.3537 C   0  0  0  0  0  0  0  0  0  0  0  0
    6.4039   54.0554  124.7307 C   0  0  0  0  0  0  0  0  0  0  0  0
    6.4994   54.6542  123.5026 C   0  0  0  0  0  0  0  0  0  0  0  0
    7.6990   54.6614  122.8263 C   0  0  0  0  0  0  0  0  0  0  0  0
    8.7827   54.0474  123.4334 C   0  0  0  0  0  0  0  0  0  0  0  0
    8.6835   53.4446  124.6712 C   0  0  0  0  0  0  0  0  0  0  0  0
 19 20  1  0  0  0
 20 10  1  0  0  0
 10 11  1  0  0  0
 11 12  1  0  0  0
 12 13  1  0  0  0
 13 14  1  0  0  0
 13 15  1  0  0  0
 15 16  1  0  0  0
 12  1  1  0  0  0
  1  2  1  0  0  0
  2  3  2  0  0  0
  3  4  1  0  0  0
  4  5  2  0  0  0
  5 22  1  0  0  0
 22 24  1  0  0  0
 24 25  2  0  0  0
 25 26  1  0  0  0
 26 27  2  0  0  0
 27 28  1  0  0  0
 28 29  2  0  0  0
 27 30  1  0  0  0
 30 31  2  0  0  0
 31 32  1  0  0  0
 32 33  2  0  0  0
 33 34  1  0  0  0
 34 35  2  0  0  0
  5  6  1  0  0  0
  6  7  2  0  0  0
  7  8  1  0  0  0
  8  9  2  0  0  0
 15 10  1  0  0  0
  9  1  1  0  0  0
  9  4  1  0  0  0
 29 24  1  0  0  0
 35 30  1  0  0  0
 19 21  1  0  0  0
 14 17  1  0  0  0
 16 18  1  0  0  0
 22 23  1  0  0  0
M  END
> <minimizedAffinity>
5.32683

> <CNNscore>
0.2476606816

> <CNNaffinity>
6.2531304359

> <CNN_VS>
1.5486545563

> <CNNaffinity_variance>
0.0887173712

$$$$
[H]OC([H])([H])[C@@]1([H])O[C@]([H])(n2c([H])nc3c(N([H])c4c([H])c([H])c(-c5c([H])c([H])c([H])c([H])c5[H])c([H])c4[H])nc([H])nc32)[C@@]([H])(O[H])[C@]1([H])O[H]


 35 39  0  0  0  0  0  0  0  0999 V2000
    8.3037   47.0588  130.2944 N   0  0  0  0  0  0  0  0  0  0  0  0
    7.2439   47.2280  129.4856 C   0  0  0  0  0  0  0  0  0  0  0  0
    6.8720   48.5224  129.4649 N   0  0  0  0  0  0  0  0  0  0  0  0
    7.7082   49.1686  130.2693 C   0  0  0  0  0  0  0  0  0  0  0  0
    7.8238   50.5140  130.6482 C   0  0  0  0  0  0  0  0  0  0  0  0
    8.8116   50.7995  131.4967 N   0  0  0  0  0  0  0  0  0  0  0  0
    9.6748   49.9094  131.9952 C   0  0  0  0  0  0  0  0  0  0  0  0
    9.5863   48.6139  131.6487 N   0  0  0  0  0  0  0  0  0  0  0  0
    8.6038   48.2745  130.7929 C   0  0  0  0  0  0  0  0  0  0  0  0
   11.1616   45.2600  130.5401 C   0  0  0  0  0  0  0  0  0  0  0  0
   10.0772   45.5988  129.7803 O   0  0  0  0  0  0  0  0  0  0  0  0
    8.9983   45.8262  130.5849 C   0  0  0  0  0  0  0  0  0  0  0  0
    9.4351   45.7287  132.0304 C   0  0  0  0  0  0  0  0  0  0  0  0
    8.4435   45.1744  132.8358 O   0  0  0  0  0  0  0  0  0  0  0  0
   10.6223   44.7852  131.8901 C   0  0  0  0  0  0  0  0  0  0  0  0
   11.5384   44.9200  132.9014 O   0  0  0  0  0  0  0  0  0  0  0  0
    8.3120   45.7845  133.6038 H   0  0  0  0  0  0  0  0  0  0  0  0
   11.3518   44.2919  133.6228 H   0  0  0  0  0  0  0  0  0  0  0  0
   13.0844   43.9607  130.8402 O   0  0  0  0  0  0  0  0  0  0  0  0
   12.0587   44.2294  129.9063 C   0  0  0  0  0  0  0  0  0  0  0  0
   13.7067   44.7521  130.7747 H   0  0  0  0  0  0  0  0  0  0  0  0
    6.9116   51.4339  130.0852 N   0  0  0  0  0  0  0  0  0  0  0  0
    6.0299   51.7036  130.6305 H   0  0  0  0  0  0  0  0  0  0  0  0
    7.0703   52.0398  128.8472 C   0  0  0  0  0  0  0  0  0  0  0  0
    6.9982   53.3801  128.6326 C   0  0  0  0  0  0  0  0  0  0  0  0
    7.2052   53.8940  127.3366 C   0  0  0  0  0  0  0  0  0  0  0  0
    7.4798   53.0772  126.2696 C   0  0  0  0  0  0  0  0  0  0  0  0
    7.5505   51.7215  126.4933 C   0  0  0  0  0  0  0  0  0  0  0  0
    7.3505   51.2238  127.7480 C   0  0  0  0  0  0  0  0  0  0  0  0
    7.6928   53.6122  124.9393 C   0  0  0  0  0  0  0  0  0  0  0  0
    6.6751   53.7327  124.0138 C   0  0  0  0  0  0  0  0  0  0  0  0
    6.8651   54.2357  122.7541 C   0  0  0  0  0  0  0  0  0  0  0  0
    8.1160   54.6512  122.3550 C   0  0  0  0  0  0  0  0  0  0  0  0
    9.1521   54.5391  123.2682 C   0  0  0  0  0  0  0  0  0  0  0  0
    8.9576   54.0318  124.5371 C   0  0  0  0  0  0  0  0  0  0  0  0
 19 20  1  0  0  0
 20 10  1  0  0  0
 10 11  1  0  0  0
 11 12  1  0  0  0
 12 13  1  0  0  0
 13 14  1  0  0  0
 13 15  1  0  0  0
 15 16  1  0  0  0
 12  1  1  0  0  0
  1  2  1  0  0  0
  2  3  2  0  0  0
  3  4  1  0  0  0
  4  5  2  0  0  0
  5 22  1  0  0  0
 22 24  1  0  0  0
 24 25  2  0  0  0
 25 26  1  0  0  0
 26 27  2  0  0  0
 27 28  1  0  0  0
 28 29  2  0  0  0
 27 30  1  0  0  0
 30 31  2  0  0  0
 31 32  1  0  0  0
 32 33  2  0  0  0
 33 34  1  0  0  0
 34 35  2  0  0  0
  5  6  1  0  0  0
  6  7  2  0  0  0
  7  8  1  0  0  0
  8  9  2  0  0  0
 15 10  1  0  0  0
  9  1  1  0  0  0
  9  4  1  0  0  0
 29 24  1  0  0  0
 35 30  1  0  0  0
 19 21  1  0  0  0
 14 17  1  0  0  0
 16 18  1  0  0  0
 22 23  1  0  0  0
M  END
> <minimizedAffinity>
5.12789

> <CNNscore>
0.2255066186

> <CNNaffinity>
6.2628946304

> <CNN_VS>
1.4123241901

> <CNNaffinity_variance>
0.5255199671

$$$$
[H]OC([H])([H])[C@@]1([H])O[C@]([H])(n2c([H])nc3c(N([H])c4c([H])c([H])c(-c5c([H])c([H])c([H])c([H])c5[H])c([H])c4[H])nc([H])nc32)[C@@]([H])(O[H])[C@]1([H])O[H]


 35 39  0  0  0  0  0  0  0  0999 V2000
    8.7715   47.1565  129.4542 N   0  0  0  0  0  0  0  0  0  0  0  0
    8.9891   46.7765  130.7247 C   0  0  0  0  0  0  0  0  0  0  0  0
    9.7963   45.6990  130.7600 N   0  0  0  0  0  0  0  0  0  0  0  0
   10.0861   45.4025  129.4981 C   0  0  0  0  0  0  0  0  0  0  0  0
   10.8695   44.4012  128.9061 C   0  0  0  0  0  0  0  0  0  0  0  0
   10.9290   44.4165  127.5743 N   0  0  0  0  0  0  0  0  0  0  0  0
   10.3065   45.3011  126.7896 C   0  0  0  0  0  0  0  0  0  0  0  0
    9.5495   46.2708  127.3311 N   0  0  0  0  0  0  0  0  0  0  0  0
    9.4576   46.2979  128.6741 C   0  0  0  0  0  0  0  0  0  0  0  0
    5.8316   48.8328  129.3490 C   0  0  0  0  0  0  0  0  0  0  0  0
    6.6646   47.9323  128.7464 O   0  0  0  0  0  0  0  0  0  0  0  0
    7.9654   48.2635  128.9948 C   0  0  0  0  0  0  0  0  0  0  0  0
    7.9989   49.4430  129.9421 C   0  0  0  0  0  0  0  0  0  0  0  0
    9.0572   50.3036  129.6618 O   0  0  0  0  0  0  0  0  0  0  0  0
    6.6603   50.0906  129.6136 C   0  0  0  0  0  0  0  0  0  0  0  0
    6.1607   50.8446  130.6442 O   0  0  0  0  0  0  0  0  0  0  0  0
    9.5486   50.4522  130.5078 H   0  0  0  0  0  0  0  0  0  0  0  0
    6.4320   51.7762  130.5538 H   0  0  0  0  0  0  0  0  0  0  0  0
    3.9399   50.2049  129.2302 O   0  0  0  0  0  0  0  0  0  0  0  0
    4.5870   49.1430  128.5594 C   0  0  0  0  0  0  0  0  0  0  0  0
    3.4991   49.7748  130.0294 H   0  0  0  0  0  0  0  0  0  0  0  0
   11.5339   43.4964  129.7634 N   0  0  0  0  0  0  0  0  0  0  0  0
   12.0714   42.6701  129.3443 H   0  0  0  0  0  0  0  0  0  0  0  0
   11.5523   43.5949  131.1473 C   0  0  0  0  0  0  0  0  0  0  0  0
   12.5185   44.2329  131.8595 C   0  0  0  0  0  0  0  0  0  0  0  0
   12.4242   44.2995  133.2642 C   0  0  0  0  0  0  0  0  0  0  0  0
   11.3775   43.7345  133.9469 C   0  0  0  0  0  0  0  0  0  0  0  0
   10.4033   43.0896  133.2202 C   0  0  0  0  0  0  0  0  0  0  0  0
   10.4942   43.0252  131.8602 C   0  0  0  0  0  0  0  0  0  0  0  0
   11.2858   43.8076  135.3917 C   0  0  0  0  0  0  0  0  0  0  0  0
   12.0254   42.9935  136.2265 C   0  0  0  0  0  0  0  0  0  0  0  0
   11.9460   43.0533  137.5926 C   0  0  0  0  0  0  0  0  0  0  0  0
   11.1000   43.9549  138.1990 C   0  0  0  0  0  0  0  0  0  0  0  0
   10.3482   44.7819  137.3799 C   0  0  0  0  0  0  0  0  0  0  0  0
   10.4302   44.7194  136.0034 C   0  0  0  0  0  0  0  0  0  0  0  0
 19 20  1  0  0  0
 20 10  1  0  0  0
 10 11  1  0  0  0
 11 12  1  0  0  0
 12 13  1  0  0  0
 13 14  1  0  0  0
 13 15  1  0  0  0
 15 16  1  0  0  0
 12  1  1  0  0  0
  1  2  1  0  0  0
  2  3  2  0  0  0
  3  4  1  0  0  0
  4  5  2  0  0  0
  5 22  1  0  0  0
 22 24  1  0  0  0
 24 25  2  0  0  0
 25 26  1  0  0  0
 26 27  2  0  0  0
 27 28  1  0  0  0
 28 29  2  0  0  0
 27 30  1  0  0  0
 30 31  2  0  0  0
 31 32  1  0  0  0
 32 33  2  0  0  0
 33 34  1  0  0  0
 34 35  2  0  0  0
  5  6  1  0  0  0
  6  7  2  0  0  0
  7  8  1  0  0  0
  8  9  2  0  0  0
 15 10  1  0  0  0
  9  1  1  0  0  0
  9  4  1  0  0  0
 29 24  1  0  0  0
 35 30  1  0  0  0
 19 21  1  0  0  0
 14 17  1  0  0  0
 16 18  1  0  0  0
 22 23  1  0  0  0
M  END
> <minimizedAffinity>
13.29739

> <CNNscore>
0.1887734979

> <CNNaffinity>
6.9375352859

> <CNN_VS>
1.3096227646

> <CNNaffinity_variance>
0.7718577385

$$$$
[H]OC([H])([H])[C@@]1([H])O[C@]([H])(n2c([H])nc3c(N([H])c4c([H])c([H])c(-c5c([H])c([H])c([H])c([H])c5[H])c([H])c4[H])nc([H])nc32)[C@@]([H])(O[H])[C@]1([H])O[H]


 35 39  0  0  0  0  0  0  0  0999 V2000
    9.2262   43.9466  132.4471 N   0  0  0  0  0  0  0  0  0  0  0  0
    8.6330   44.9732  131.8145 C   0  0  0  0  0  0  0  0  0  0  0  0
    9.3580   46.0983  131.9649 N   0  0  0  0  0  0  0  0  0  0  0  0
   10.4152   45.7711  132.6993 C   0  0  0  0  0  0  0  0  0  0  0  0
   11.5104   46.5038  133.1796 C   0  0  0  0  0  0  0  0  0  0  0  0
   12.3982   45.8213  133.9031 N   0  0  0  0  0  0  0  0  0  0  0  0
   12.3128   44.5193  134.1915 C   0  0  0  0  0  0  0  0  0  0  0  0
   11.2737   43.7939  133.7438 N   0  0  0  0  0  0  0  0  0  0  0  0
   10.3489   44.4383  133.0075 C   0  0  0  0  0  0  0  0  0  0  0  0
    7.0519   41.6138  133.5849 C   0  0  0  0  0  0  0  0  0  0  0  0
    8.2591   42.2351  133.7421 O   0  0  0  0  0  0  0  0  0  0  0  0
    8.7673   42.5791  132.5229 C   0  0  0  0  0  0  0  0  0  0  0  0
    7.7489   42.2448  131.4548 C   0  0  0  0  0  0  0  0  0  0  0  0
    8.3543   41.8095  130.2787 O   0  0  0  0  0  0  0  0  0  0  0  0
    7.0004   41.1102  132.1418 C   0  0  0  0  0  0  0  0  0  0  0  0
    5.7178   40.9565  131.6819 O   0  0  0  0  0  0  0  0  0  0  0  0
    7.9798   42.3477  129.5375 H   0  0  0  0  0  0  0  0  0  0  0  0
    5.6857   40.3027  130.9600 H   0  0  0  0  0  0  0  0  0  0  0  0
    5.3976   40.4181  134.7289 O   0  0  0  0  0  0  0  0  0  0  0  0
    6.7990   40.5032  134.5706 C   0  0  0  0  0  0  0  0  0  0  0  0
    5.1575   41.1960  135.3249 H   0  0  0  0  0  0  0  0  0  0  0  0
   11.5841   47.8722  132.8373 N   0  0  0  0  0  0  0  0  0  0  0  0
   12.4097   48.4595  133.1850 H   0  0  0  0  0  0  0  0  0  0  0  0
   10.6484   48.5388  132.0593 C   0  0  0  0  0  0  0  0  0  0  0  0
   10.7926   48.7911  130.7314 C   0  0  0  0  0  0  0  0  0  0  0  0
    9.7648   49.4511  130.0283 C   0  0  0  0  0  0  0  0  0  0  0  0
    8.6084   49.8539  130.6462 C   0  0  0  0  0  0  0  0  0  0  0  0
    8.4691   49.5963  131.9905 C   0  0  0  0  0  0  0  0  0  0  0  0
    9.4640   48.9571  132.6713 C   0  0  0  0  0  0  0  0  0  0  0  0
    7.5545   50.5313  129.9171 C   0  0  0  0  0  0  0  0  0  0  0  0
    7.7817   51.6651  129.1624 C   0  0  0  0  0  0  0  0  0  0  0  0
    6.7934   52.3136  128.4705 C   0  0  0  0  0  0  0  0  0  0  0  0
    5.4998   51.8427  128.5046 C   0  0  0  0  0  0  0  0  0  0  0  0
    5.2493   50.7058  129.2560 C   0  0  0  0  0  0  0  0  0  0  0  0
    6.2473   50.0543  129.9524 C   0  0  0  0  0  0  0  0  0  0  0  0
 19 20  1  0  0  0
 20 10  1  0  0  0
 10 11  1  0  0  0
 11 12  1  0  0  0
 12 13  1  0  0  0
 13 14  1  0  0  0
 13 15  1  0  0  0
 15 16  1  0  0  0
 12  1  1  0  0  0
  1  2  1  0  0  0
  2  3  2  0  0  0
  3  4  1  0  0  0
  4  5  2  0  0  0
  5 22  1  0  0  0
 22 24  1  0  0  0
 24 25  2  0  0  0
 25 26  1  0  0  0
 26 27  2  0  0  0
 27 28  1  0  0  0
 28 29  2  0  0  0
 27 30  1  0  0  0
 30 31  2  0  0  0
 31 32  1  0  0  0
 32 33  2  0  0  0
 33 34  1  0  0  0
 34 35  2  0  0  0
  5  6  1  0  0  0
  6  7  2  0  0  0
  7  8  1  0  0  0
  8  9  2  0  0  0
 15 10  1  0  0  0
  9  1  1  0  0  0
  9  4  1  0  0  0
 29 24  1  0  0  0
 35 30  1  0  0  0
 19 21  1  0  0  0
 14 17  1  0  0  0
 16 18  1  0  0  0
 22 23  1  0  0  0
M  END
> <minimizedAffinity>
16.31080

> <CNNscore>
0.1276125163

> <CNNaffinity>
6.6089806557

> <CNN_VS>
0.8433886766

> <CNNaffinity_variance>
1.3007862568

$$$$
[H]OC([H])([H])[C@@]1([H])O[C@]([H])(n2c([H])nc3c(N([H])c4c([H])c([H])c(-c5c([H])c([H])c([H])c([H])c5[H])c([H])c4[H])nc([H])nc32)[C@@]([H])(O[H])[C@]1([H])O[H]


 35 39  0  0  0  0  0  0  0  0999 V2000
    9.7350   46.5238  132.9760 N   0  0  0  0  0  0  0  0  0  0  0  0
    9.4271   47.6162  133.6956 C   0  0  0  0  0  0  0  0  0  0  0  0
    8.9053   48.5696  132.9001 N   0  0  0  0  0  0  0  0  0  0  0  0
    8.8871   48.0676  131.6706 C   0  0  0  0  0  0  0  0  0  0  0  0
    8.4638   48.5780  130.4348 C   0  0  0  0  0  0  0  0  0  0  0  0
    8.6024   47.7642  129.3879 N   0  0  0  0  0  0  0  0  0  0  0  0
    9.1052   46.5272  129.4403 C   0  0  0  0  0  0  0  0  0  0  0  0
    9.5183   46.0138  130.6117 N   0  0  0  0  0  0  0  0  0  0  0  0
    9.3990   46.7976  131.6999 C   0  0  0  0  0  0  0  0  0  0  0  0
   10.5686   43.2734  132.5238 C   0  0  0  0  0  0  0  0  0  0  0  0
    9.6645   44.1711  133.0184 O   0  0  0  0  0  0  0  0  0  0  0  0
   10.3121   45.2900  133.4567 C   0  0  0  0  0  0  0  0  0  0  0  0
   11.7836   45.1660  133.1266 C   0  0  0  0  0  0  0  0  0  0  0  0
   12.5860   45.7392  134.1099 O   0  0  0  0  0  0  0  0  0  0  0  0
   11.9295   43.6501  133.1110 C   0  0  0  0  0  0  0  0  0  0  0  0
   12.9760   43.2188  132.3370 O   0  0  0  0  0  0  0  0  0  0  0  0
   13.2114   46.3579  133.6566 H   0  0  0  0  0  0  0  0  0  0  0  0
   13.7823   43.1129  132.8740 H   0  0  0  0  0  0  0  0  0  0  0  0
   11.1312   41.0505  132.0578 O   0  0  0  0  0  0  0  0  0  0  0  0
   10.2219   41.8344  132.8027 C   0  0  0  0  0  0  0  0  0  0  0  0
   10.7945   41.0974  131.1079 H   0  0  0  0  0  0  0  0  0  0  0  0
    7.9148   49.8793  130.4168 N   0  0  0  0  0  0  0  0  0  0  0  0
    8.4043   50.6661  130.9542 H   0  0  0  0  0  0  0  0  0  0  0  0
    6.7598   50.2352  129.7353 C   0  0  0  0  0  0  0  0  0  0  0  0
    5.5802   49.5651  129.8198 C   0  0  0  0  0  0  0  0  0  0  0  0
    4.4574   50.0311  129.1067 C   0  0  0  0  0  0  0  0  0  0  0  0
    4.5147   51.1523  128.3188 C   0  0  0  0  0  0  0  0  0  0  0  0
    5.7118   51.8255  128.2369 C   0  0  0  0  0  0  0  0  0  0  0  0
    6.7989   51.3747  128.9275 C   0  0  0  0  0  0  0  0  0  0  0  0
    3.3559   51.6271  127.5887 C   0  0  0  0  0  0  0  0  0  0  0  0
    2.1501   50.9543  127.5875 C   0  0  0  0  0  0  0  0  0  0  0  0
    1.0493   51.3931  126.9006 C   0  0  0  0  0  0  0  0  0  0  0  0
    1.1092   52.5559  126.1652 C   0  0  0  0  0  0  0  0  0  0  0  0
    2.3100   53.2472  126.1525 C   0  0  0  0  0  0  0  0  0  0  0  0
    3.4178   52.8025  126.8457 C   0  0  0  0  0  0  0  0  0  0  0  0
 19 20  1  0  0  0
 20 10  1  0  0  0
 10 11  1  0  0  0
 11 12  1  0  0  0
 12 13  1  0  0  0
 13 14  1  0  0  0
 13 15  1  0  0  0
 15 16  1  0  0  0
 12  1  1  0  0  0
  1  2  1  0  0  0
  2  3  2  0  0  0
  3  4  1  0  0  0
  4  5  2  0  0  0
  5 22  1  0  0  0
 22 24  1  0  0  0
 24 25  2  0  0  0
 25 26  1  0  0  0
 26 27  2  0  0  0
 27 28  1  0  0  0
 28 29  2  0  0  0
 27 30  1  0  0  0
 30 31  2  0  0  0
 31 32  1  0  0  0
 32 33  2  0  0  0
 33 34  1  0  0  0
 34 35  2  0  0  0
  5  6  1  0  0  0
  6  7  2  0  0  0
  7  8  1  0  0  0
  8  9  2  0  0  0
 15 10  1  0  0  0
  9  1  1  0  0  0
  9  4  1  0  0  0
 29 24  1  0  0  0
 35 30  1  0  0  0
 19 21  1  0  0  0
 14 17  1  0  0  0
 16 18  1  0  0  0
 22 23  1  0  0  0
M  END
> <minimizedAffinity>
13.52341

> <CNNscore>
0.1122022122

> <CNNaffinity>
6.4273986816

> <CNN_VS>
0.7211683393

> <CNNaffinity_variance>
0.2439682931

$$$$
[H]OC([H])([H])[C@@]1([H])O[C@]([H])(n2c([H])nc3c(N([H])c4c([H])c([H])c(-c5c([H])c([H])c([H])c([H])c5[H])c([H])c4[H])nc([H])nc32)[C@@]([H])(O[H])[C@]1([H])O[H]


 35 39  0  0  0  0  0  0  0  0999 V2000
    9.9622   46.2117  130.0708 N   0  0  0  0  0  0  0  0  0  0  0  0
   10.2137   47.3512  129.4044 C   0  0  0  0  0  0  0  0  0  0  0  0
    9.5900   48.3878  129.9965 N   0  0  0  0  0  0  0  0  0  0  0  0
    8.9419   47.8906  131.0438 C   0  0  0  0  0  0  0  0  0  0  0  0
    8.1282   48.4695  132.0286 C   0  0  0  0  0  0  0  0  0  0  0  0
    7.6381   47.6356  132.9462 N   0  0  0  0  0  0  0  0  0  0  0  0
    7.8670   46.3197  132.9858 C   0  0  0  0  0  0  0  0  0  0  0  0
    8.6430   45.7395  132.0543 N   0  0  0  0  0  0  0  0  0  0  0  0
    9.1623   46.5402  131.1046 C   0  0  0  0  0  0  0  0  0  0  0  0
   10.5640   42.9974  130.9485 C   0  0  0  0  0  0  0  0  0  0  0  0
   11.0602   44.2626  130.8037 O   0  0  0  0  0  0  0  0  0  0  0  0
   10.4445   44.8867  129.7575 C   0  0  0  0  0  0  0  0  0  0  0  0
    9.3583   43.9824  129.2172 C   0  0  0  0  0  0  0  0  0  0  0  0
    9.2325   44.0913  127.8346 O   0  0  0  0  0  0  0  0  0  0  0  0
    9.9175   42.6226  129.6142 C   0  0  0  0  0  0  0  0  0  0  0  0
    8.9488   41.6615  129.7487 O   0  0  0  0  0  0  0  0  0  0  0  0
    8.2772   44.2582  127.6375 H   0  0  0  0  0  0  0  0  0  0  0  0
    8.8306   41.1710  128.9149 H   0  0  0  0  0  0  0  0  0  0  0  0
   12.5100   42.6598  132.2032 O   0  0  0  0  0  0  0  0  0  0  0  0
   11.5895   41.9798  131.3746 C   0  0  0  0  0  0  0  0  0  0  0  0
   13.0882   43.1882  131.5672 H   0  0  0  0  0  0  0  0  0  0  0  0
    7.9253   49.8662  131.9730 N   0  0  0  0  0  0  0  0  0  0  0  0
    7.9715   50.4425  132.8748 H   0  0  0  0  0  0  0  0  0  0  0  0
    7.6676   50.5769  130.8096 C   0  0  0  0  0  0  0  0  0  0  0  0
    6.9228   50.1099  129.7728 C   0  0  0  0  0  0  0  0  0  0  0  0
    6.6977   50.9283  128.6477 C   0  0  0  0  0  0  0  0  0  0  0  0
    7.2119   52.1969  128.5610 C   0  0  0  0  0  0  0  0  0  0  0  0
    7.9655   52.6633  129.6134 C   0  0  0  0  0  0  0  0  0  0  0  0
    8.1833   51.8712  130.7029 C   0  0  0  0  0  0  0  0  0  0  0  0
    6.9758   53.0341  127.4015 C   0  0  0  0  0  0  0  0  0  0  0  0
    5.7077   53.3843  126.9822 C   0  0  0  0  0  0  0  0  0  0  0  0
    5.4729   54.1738  125.8879 C   0  0  0  0  0  0  0  0  0  0  0  0
    6.5258   54.6602  125.1453 C   0  0  0  0  0  0  0  0  0  0  0  0
    7.8074   54.3209  125.5484 C   0  0  0  0  0  0  0  0  0  0  0  0
    8.0409   53.5251  126.6518 C   0  0  0  0  0  0  0  0  0  0  0  0
 19 20  1  0  0  0
 20 10  1  0  0  0
 10 11  1  0  0  0
 11 12  1  0  0  0
 12 13  1  0  0  0
 13 14  1  0  0  0
 13 15  1  0  0  0
 15 16  1  0  0  0
 12  1  1  0  0  0
  1  2  1  0  0  0
  2  3  2  0  0  0
  3  4  1  0  0  0
  4  5  2  0  0  0
  5 22  1  0  0  0
 22 24  1  0  0  0
 24 25  2  0  0  0
 25 26  1  0  0  0
 26 27  2  0  0  0
 27 28  1  0  0  0
 28 29  2  0  0  0
 27 30  1  0  0  0
 30 31  2  0  0  0
 31 32  1  0  0  0
 32 33  2  0  0  0
 33 34  1  0  0  0
 34 35  2  0  0  0
  5  6  1  0  0  0
  6  7  2  0  0  0
  7  8  1  0  0  0
  8  9  2  0  0  0
 15 10  1  0  0  0
  9  1  1  0  0  0
  9  4  1  0  0  0
 29 24  1  0  0  0
 35 30  1  0  0  0
 19 21  1  0  0  0
 14 17  1  0  0  0
 16 18  1  0  0  0
 22 23  1  0  0  0
M  END
> <minimizedAffinity>
15.55255

> <CNNscore>
0.1090220511

> <CNNaffinity>
5.8639283180

> <CNN_VS>
0.6392974854

> <CNNaffinity_variance>
0.1146413460

$$$$
[H]OC([H])([H])[C@@]1([H])O[C@]([H])(n2c([H])nc3c(N([H])c4c([H])c([H])c(-c5c([H])c([H])c([H])c([H])c5[H])c([H])c4[H])nc([H])nc32)[C@@]([H])(O[H])[C@]1([H])O[H]


 35 39  0  0  0  0  0  0  0  0999 V2000
    9.6727   45.7577  130.2431 N   0  0  0  0  0  0  0  0  0  0  0  0
    9.5556   46.2588  129.0018 C   0  0  0  0  0  0  0  0  0  0  0  0
    9.1531   47.5432  129.0509 N   0  0  0  0  0  0  0  0  0  0  0  0
    9.0172   47.8476  130.3365 C   0  0  0  0  0  0  0  0  0  0  0  0
    8.6309   49.0172  131.0073 C   0  0  0  0  0  0  0  0  0  0  0  0
    8.6103   48.9478  132.3385 N   0  0  0  0  0  0  0  0  0  0  0  0
    8.9258   47.8644  133.0543 C   0  0  0  0  0  0  0  0  0  0  0  0
    9.2993   46.7306  132.4366 N   0  0  0  0  0  0  0  0  0  0  0  0
    9.3360   46.7498  131.0909 C   0  0  0  0  0  0  0  0  0  0  0  0
   11.0895   43.5987  132.4331 C   0  0  0  0  0  0  0  0  0  0  0  0
   11.2462   44.3780  131.3213 O   0  0  0  0  0  0  0  0  0  0  0  0
   10.0783   44.4225  130.6161 C   0  0  0  0  0  0  0  0  0  0  0  0
    9.0094   43.6823  131.3903 C   0  0  0  0  0  0  0  0  0  0  0  0
    8.1302   43.0085  130.5464 O   0  0  0  0  0  0  0  0  0  0  0  0
    9.8738   42.7067  132.1778 C   0  0  0  0  0  0  0  0  0  0  0  0
    9.2807   42.2783  133.3376 O   0  0  0  0  0  0  0  0  0  0  0  0
    7.2120   43.2676  130.8092 H   0  0  0  0  0  0  0  0  0  0  0  0
    8.7914   41.4487  133.1894 H   0  0  0  0  0  0  0  0  0  0  0  0
   12.9327   43.4599  133.8678 O   0  0  0  0  0  0  0  0  0  0  0  0
   12.3075   42.7889  132.7930 C   0  0  0  0  0  0  0  0  0  0  0  0
   13.4031   44.2450  133.4432 H   0  0  0  0  0  0  0  0  0  0  0  0
    8.3270   50.1521  130.2233 N   0  0  0  0  0  0  0  0  0  0  0  0
    9.0805   50.8948  130.0556 H   0  0  0  0  0  0  0  0  0  0  0  0
    7.0958   50.3900  129.6296 C   0  0  0  0  0  0  0  0  0  0  0  0
    5.9855   49.6326  129.8326 C   0  0  0  0  0  0  0  0  0  0  0  0
    4.7747   49.9815  129.2013 C   0  0  0  0  0  0  0  0  0  0  0  0
    4.6767   51.0733  128.3770 C   0  0  0  0  0  0  0  0  0  0  0  0
    5.8043   51.8353  128.1750 C   0  0  0  0  0  0  0  0  0  0  0  0
    6.9766   51.4979  128.7864 C   0  0  0  0  0  0  0  0  0  0  0  0
    3.4280   51.4274  127.7315 C   0  0  0  0  0  0  0  0  0  0  0  0
    3.2888   52.5565  126.9490 C   0  0  0  0  0  0  0  0  0  0  0  0
    2.1138   52.9012  126.3353 C   0  0  0  0  0  0  0  0  0  0  0  0
    0.9967   52.1093  126.4822 C   0  0  0  0  0  0  0  0  0  0  0  0
    1.1141   50.9710  127.2635 C   0  0  0  0  0  0  0  0  0  0  0  0
    2.2997   50.6261  127.8808 C   0  0  0  0  0  0  0  0  0  0  0  0
 19 20  1  0  0  0
 20 10  1  0  0  0
 10 11  1  0  0  0
 11 12  1  0  0  0
 12 13  1  0  0  0
 13 14  1  0  0  0
 13 15  1  0  0  0
 15 16  1  0  0  0
 12  1  1  0  0  0
  1  2  1  0  0  0
  2  3  2  0  0  0
  3  4  1  0  0  0
  4  5  2  0  0  0
  5 22  1  0  0  0
 22 24  1  0  0  0
 24 25  2  0  0  0
 25 26  1  0  0  0
 26 27  2  0  0  0
 27 28  1  0  0  0
 28 29  2  0  0  0
 27 30  1  0  0  0
 30 31  2  0  0  0
 31 32  1  0  0  0
 32 33  2  0  0  0
 33 34  1  0  0  0
 34 35  2  0  0  0
  5  6  1  0  0  0
  6  7  2  0  0  0
  7  8  1  0  0  0
  8  9  2  0  0  0
 15 10  1  0  0  0
  9  1  1  0  0  0
  9  4  1  0  0  0
 29 24  1  0  0  0
 35 30  1  0  0  0
 19 21  1  0  0  0
 14 17  1  0  0  0
 16 18  1  0  0  0
 22 23  1  0  0  0
M  END
> <minimizedAffinity>
13.37991

> <CNNscore>
0.1014099568

> <CNNaffinity>
6.3484320641

> <CNN_VS>
0.6437942386

> <CNNaffinity_variance>
0.2563472986

$$$$
[H]C1=C([H])C([H])(F)C([H])([H])C([H])=C1N([H])C(=O)C1(C(=O)N([H])c2c([H])c([H])c(Oc3c([H])c([H])nc4c([H])c(OC([H])([H])C([H])([H])C([H])([H])N5C([H])([H])C([H])([H])C([H])([H])C5([H])[H])c(OC([H])([H])[H])c([H])c34)c(F)c2[H])C([H])([H])C1([H])[H]


 47 52  0  0  0  0  0  0  0  0999 V2000
    7.7944   49.0070  129.4145 C   0  0  0  0  0  0  0  0  0  0  0  0
    7.3515   49.1856  128.1111 C   0  0  0  0  0  0  0  0  0  0  0  0
    7.0751   50.4383  127.6281 C   0  0  0  0  0  0  0  0  0  0  0  0
    7.2170   51.6030  128.3999 C   0  0  0  0  0  0  0  0  0  0  0  0
    7.6527   51.4253  129.6836 C   0  0  0  0  0  0  0  0  0  0  0  0
    7.9363   50.1373  130.1762 C   0  0  0  0  0  0  0  0  0  0  0  0
    8.3790   50.0560  131.4567 F   0  0  0  0  0  0  0  0  0  0  0  0
    6.8812   52.8639  127.8201 N   0  0  0  0  0  0  0  0  0  0  0  0
    7.4178   53.4396  126.6753 C   0  0  0  0  0  0  0  0  0  0  0  0
    8.3326   52.7737  126.0696 O   0  0  0  0  0  0  0  0  0  0  0  0
    6.1658   53.4035  128.4171 H   0  0  0  0  0  0  0  0  0  0  0  0
    7.0555   54.7283  126.0995 C   0  0  0  0  0  0  0  0  0  0  0  0
    7.5068   54.9768  124.6628 C   0  0  0  0  0  0  0  0  0  0  0  0
    8.2883   55.5842  125.7611 C   0  0  0  0  0  0  0  0  0  0  0  0
    5.8525   55.4865  126.5289 C   0  0  0  0  0  0  0  0  0  0  0  0
    6.1552   56.5708  127.1677 O   0  0  0  0  0  0  0  0  0  0  0  0
    4.5533   55.1061  126.2802 N   0  0  0  0  0  0  0  0  0  0  0  0
    4.4219   54.2501  125.6580 H   0  0  0  0  0  0  0  0  0  0  0  0
    3.3160   55.7331  126.6611 C   0  0  0  0  0  0  0  0  0  0  0  0
    3.2045   57.0111  126.9151 C   0  0  0  0  0  0  0  0  0  0  0  0
    1.9392   57.6613  127.3059 C   0  0  0  0  0  0  0  0  0  0  0  0
    0.7517   56.7990  127.4250 C   0  0  0  0  0  0  0  0  0  0  0  0
    0.2760   56.8967  128.7469 F   0  0  0  0  0  0  0  0  0  0  0  0
    0.9572   55.3925  127.1263 C   0  0  0  0  0  0  0  0  0  0  0  0
    2.1058   54.8987  126.7812 C   0  0  0  0  0  0  0  0  0  0  0  0
    8.0804   47.7586  129.9195 O   0  0  0  0  0  0  0  0  0  0  0  0
   10.4426   46.6373  133.0692 C   0  0  0  0  0  0  0  0  0  0  0  0
    9.6701   46.9979  131.9927 C   0  0  0  0  0  0  0  0  0  0  0  0
    9.9425   46.5777  130.7149 C   0  0  0  0  0  0  0  0  0  0  0  0
    9.1399   46.9560  129.6385 C   0  0  0  0  0  0  0  0  0  0  0  0
    9.5152   46.4686  128.4106 C   0  0  0  0  0  0  0  0  0  0  0  0
   10.6116   45.6589  128.2519 C   0  0  0  0  0  0  0  0  0  0  0  0
   11.3408   45.3286  129.3059 N   0  0  0  0  0  0  0  0  0  0  0  0
   11.0447   45.7645  130.5591 C   0  0  0  0  0  0  0  0  0  0  0  0
   11.8406   45.3849  131.6196 C   0  0  0  0  0  0  0  0  0  0  0  0
   11.5274   45.8303  132.8769 C   0  0  0  0  0  0  0  0  0  0  0  0
    8.9156   46.7965  134.9908 C   0  0  0  0  0  0  0  0  0  0  0  0
   10.1304   47.0861  134.3519 O   0  0  0  0  0  0  0  0  0  0  0  0
   12.3527   45.4257  133.9169 O   0  0  0  0  0  0  0  0  0  0  0  0
   12.4431   44.1179  134.3872 C   0  0  0  0  0  0  0  0  0  0  0  0
   11.7694   43.1944  133.4054 C   0  0  0  0  0  0  0  0  0  0  0  0
   10.3154   42.9983  133.7261 C   0  0  0  0  0  0  0  0  0  0  0  0
    9.5771   42.6342  132.5591 N   0  0  0  0  0  0  0  0  0  0  0  0
    8.4497   43.4569  132.2630 C   0  0  0  0  0  0  0  0  0  0  0  0
    8.3627   43.5619  130.7374 C   0  0  0  0  0  0  0  0  0  0  0  0
    9.2349   42.3958  130.3106 C   0  0  0  0  0  0  0  0  0  0  0  0
   10.3488   42.4800  131.3643 C   0  0  0  0  0  0  0  0  0  0  0  0
 37 38  1  0  0  0
 38 27  1  0  0  0
 27 28  2  0  0  0
 28 29  1  0  0  0
 29 30  2  0  0  0
 30 26  1  0  0  0
 26  1  1  0  0  0
  1  2  2  0  0  0
  2  3  1  0  0  0
  3  4  2  0  0  0
  4  8  1  0  0  0
  8  9  1  0  0  0
  9 10  2  0  0  0
  9 12  1  0  0  0
 12 13  1  0  0  0
 13 14  1  0  0  0
 12 15  1  0  0  0
 15 16  2  0  0  0
 15 17  1  0  0  0
 17 19  1  0  0  0
 19 20  2  0  0  0
 20 21  1  0  0  0
 21 22  1  0  0  0
 22 23  1  0  0  0
 22 24  1  0  0  0
 24 25  2  0  0  0
  4  5  1  0  0  0
  5  6  2  0  0  0
  6  7  1  0  0  0
 30 31  1  0  0  0
 31 32  2  0  0  0
 32 33  1  0  0  0
 33 34  2  0  0  0
 34 35  1  0  0  0
 35 36  2  0  0  0
 36 39  1  0  0  0
 39 40  1  0  0  0
 40 41  1  0  0  0
 41 42  1  0  0  0
 42 43  1  0  0  0
 43 44  1  0  0  0
 44 45  1  0  0  0
 45 46  1  0  0  0
 46 47  1  0  0  0
 36 27  1  0  0  0
 47 43  1  0  0  0
 34 29  1  0  0  0
  6  1  1  0  0  0
 14 12  1  0  0  0
 25 19  1  0  0  0
  8 11  1  0  0  0
 17 18  1  0  0  0
M  END
> <minimizedAffinity>
3.71232

> <CNNscore>
0.4575085342

> <CNNaffinity>
7.9208464622

> <CNN_VS>
3.6238548756

> <CNNaffinity_variance>
0.1133647710

$$$$
[H]C1=C([H])C([H])(F)C([H])([H])C([H])=C1N([H])C(=O)C1(C(=O)N([H])c2c([H])c([H])c(Oc3c([H])c([H])nc4c([H])c(OC([H])([H])C([H])([H])C([H])([H])N5C([H])([H])C([H])([H])C([H])([H])C5([H])[H])c(OC([H])([H])[H])c([H])c34)c(F)c2[H])C([H])([H])C1([H])[H]


 47 52  0  0  0  0  0  0  0  0999 V2000
   11.8699   43.4787  130.3317 C   0  0  0  0  0  0  0  0  0  0  0  0
   11.4966   43.2374  131.6467 C   0  0  0  0  0  0  0  0  0  0  0  0
   12.1211   43.8803  132.6838 C   0  0  0  0  0  0  0  0  0  0  0  0
   13.1589   44.8073  132.4940 C   0  0  0  0  0  0  0  0  0  0  0  0
   13.5257   45.0434  131.1982 C   0  0  0  0  0  0  0  0  0  0  0  0
   12.8817   44.3818  130.1354 C   0  0  0  0  0  0  0  0  0  0  0  0
   13.2994   44.6891  128.8810 F   0  0  0  0  0  0  0  0  0  0  0  0
   13.7679   45.4095  133.6364 N   0  0  0  0  0  0  0  0  0  0  0  0
   13.3642   46.5588  134.3044 C   0  0  0  0  0  0  0  0  0  0  0  0
   12.3327   47.1640  133.8389 O   0  0  0  0  0  0  0  0  0  0  0  0
   14.6690   44.8977  133.9286 H   0  0  0  0  0  0  0  0  0  0  0  0
   14.0007   47.1530  135.4729 C   0  0  0  0  0  0  0  0  0  0  0  0
   13.2713   48.3309  136.1133 C   0  0  0  0  0  0  0  0  0  0  0  0
   14.4227   48.6122  135.2294 C   0  0  0  0  0  0  0  0  0  0  0  0
   14.8822   46.3789  136.3841 C   0  0  0  0  0  0  0  0  0  0  0  0
   14.8203   45.1047  136.1652 O   0  0  0  0  0  0  0  0  0  0  0  0
   15.6898   46.9303  137.3528 N   0  0  0  0  0  0  0  0  0  0  0  0
   15.7395   47.9952  137.3773 H   0  0  0  0  0  0  0  0  0  0  0  0
   16.5601   46.2938  138.3050 C   0  0  0  0  0  0  0  0  0  0  0  0
   16.3601   45.0880  138.7699 C   0  0  0  0  0  0  0  0  0  0  0  0
   17.2481   44.4286  139.7461 C   0  0  0  0  0  0  0  0  0  0  0  0
   18.4106   45.1977  140.2206 C   0  0  0  0  0  0  0  0  0  0  0  0
   18.3021   45.3288  141.6186 F   0  0  0  0  0  0  0  0  0  0  0  0
   18.5634   46.5277  139.6571 C   0  0  0  0  0  0  0  0  0  0  0  0
   17.7383   47.0341  138.7940 C   0  0  0  0  0  0  0  0  0  0  0  0
   11.2549   42.8465  129.2746 O   0  0  0  0  0  0  0  0  0  0  0  0
    8.5136   45.5375  130.6894 C   0  0  0  0  0  0  0  0  0  0  0  0
    9.4194   44.6368  130.1857 C   0  0  0  0  0  0  0  0  0  0  0  0
    9.4470   44.2800  128.8607 C   0  0  0  0  0  0  0  0  0  0  0  0
   10.3799   43.3644  128.3736 C   0  0  0  0  0  0  0  0  0  0  0  0
   10.3066   43.0918  127.0296 C   0  0  0  0  0  0  0  0  0  0  0  0
    9.3739   43.6836  126.2155 C   0  0  0  0  0  0  0  0  0  0  0  0
    8.5104   44.5464  126.7271 N   0  0  0  0  0  0  0  0  0  0  0  0
    8.5085   44.8764  128.0459 C   0  0  0  0  0  0  0  0  0  0  0  0
    7.5853   45.7842  128.5210 C   0  0  0  0  0  0  0  0  0  0  0  0
    7.5980   46.1085  129.8522 C   0  0  0  0  0  0  0  0  0  0  0  0
    7.9082   45.0867  133.0302 C   0  0  0  0  0  0  0  0  0  0  0  0
    8.5202   45.8730  132.0428 O   0  0  0  0  0  0  0  0  0  0  0  0
    6.6532   47.0259  130.2905 O   0  0  0  0  0  0  0  0  0  0  0  0
    5.2809   46.7896  130.3205 C   0  0  0  0  0  0  0  0  0  0  0  0
    4.5540   48.1093  130.2987 C   0  0  0  0  0  0  0  0  0  0  0  0
    3.1642   47.9755  129.7454 C   0  0  0  0  0  0  0  0  0  0  0  0
    2.6094   46.6967  130.0556 N   0  0  0  0  0  0  0  0  0  0  0  0
    2.5625   46.3667  131.4429 C   0  0  0  0  0  0  0  0  0  0  0  0
    1.2757   45.5670  131.6678 C   0  0  0  0  0  0  0  0  0  0  0  0
    0.9327   45.1536  130.2487 C   0  0  0  0  0  0  0  0  0  0  0  0
    1.3259   46.4262  129.4844 C   0  0  0  0  0  0  0  0  0  0  0  0
 37 38  1  0  0  0
 38 27  1  0  0  0
 27 28  2  0  0  0
 28 29  1  0  0  0
 29 30  2  0  0  0
 30 26  1  0  0  0
 26  1  1  0  0  0
  1  2  2  0  0  0
  2  3  1  0  0  0
  3  4  2  0  0  0
  4  8  1  0  0  0
  8  9  1  0  0  0
  9 10  2  0  0  0
  9 12  1  0  0  0
 12 13  1  0  0  0
 13 14  1  0  0  0
 12 15  1  0  0  0
 15 16  2  0  0  0
 15 17  1  0  0  0
 17 19  1  0  0  0
 19 20  2  0  0  0
 20 21  1  0  0  0
 21 22  1  0  0  0
 22 23  1  0  0  0
 22 24  1  0  0  0
 24 25  2  0  0  0
  4  5  1  0  0  0
  5  6  2  0  0  0
  6  7  1  0  0  0
 30 31  1  0  0  0
 31 32  2  0  0  0
 32 33  1  0  0  0
 33 34  2  0  0  0
 34 35  1  0  0  0
 35 36  2  0  0  0
 36 39  1  0  0  0
 39 40  1  0  0  0
 40 41  1  0  0  0
 41 42  1  0  0  0
 42 43  1  0  0  0
 43 44  1  0  0  0
 44 45  1  0  0  0
 45 46  1  0  0  0
 46 47  1  0  0  0
 36 27  1  0  0  0
 47 43  1  0  0  0
 34 29  1  0  0  0
  6  1  1  0  0  0
 14 12  1  0  0  0
 25 19  1  0  0  0
  8 11  1  0  0  0
 17 18  1  0  0  0
M  END
> <minimizedAffinity>
51.01257

> <CNNscore>
0.3820820749

> <CNNaffinity>
7.1844887733

> <CNN_VS>
2.7450642586

> <CNNaffinity_variance>
0.5230189562

$$$$
[H]C1=C([H])C([H])(F)C([H])([H])C([H])=C1N([H])C(=O)C1(C(=O)N([H])c2c([H])c([H])c(Oc3c([H])c([H])nc4c([H])c(OC([H])([H])C([H])([H])C([H])([H])N5C([H])([H])C([H])([H])C([H])([H])C5([H])[H])c(OC([H])([H])[H])c([H])c34)c(F)c2[H])C([H])([H])C1([H])[H]


 47 52  0  0  0  0  0  0  0  0999 V2000
    7.7797   49.3604  129.6310 C   0  0  0  0  0  0  0  0  0  0  0  0
    7.2606   49.4723  128.3484 C   0  0  0  0  0  0  0  0  0  0  0  0
    6.9604   50.6994  127.8163 C   0  0  0  0  0  0  0  0  0  0  0  0
    7.1521   51.9026  128.5148 C   0  0  0  0  0  0  0  0  0  0  0  0
    7.6629   51.7906  129.7780 C   0  0  0  0  0  0  0  0  0  0  0  0
    7.9707   50.5288  130.3212 C   0  0  0  0  0  0  0  0  0  0  0  0
    8.4886   50.5129  131.5758 F   0  0  0  0  0  0  0  0  0  0  0  0
    6.7869   53.1329  127.8891 N   0  0  0  0  0  0  0  0  0  0  0  0
    7.5638   53.9181  127.0465 C   0  0  0  0  0  0  0  0  0  0  0  0
    8.7550   53.5040  126.8084 O   0  0  0  0  0  0  0  0  0  0  0  0
    5.8069   53.4620  128.1902 H   0  0  0  0  0  0  0  0  0  0  0  0
    7.1671   55.1703  126.4155 C   0  0  0  0  0  0  0  0  0  0  0  0
    8.1926   56.3001  126.4534 C   0  0  0  0  0  0  0  0  0  0  0  0
    7.0769   56.3293  127.4232 C   0  0  0  0  0  0  0  0  0  0  0  0
    6.1983   55.2276  125.2909 C   0  0  0  0  0  0  0  0  0  0  0  0
    5.7040   56.4124  125.1260 O   0  0  0  0  0  0  0  0  0  0  0  0
    5.8551   54.1593  124.4937 N   0  0  0  0  0  0  0  0  0  0  0  0
    6.3988   53.2560  124.6534 H   0  0  0  0  0  0  0  0  0  0  0  0
    4.9215   54.0810  123.4022 C   0  0  0  0  0  0  0  0  0  0  0  0
    3.6238   54.0763  123.5633 C   0  0  0  0  0  0  0  0  0  0  0  0
    2.6601   53.9964  122.4491 C   0  0  0  0  0  0  0  0  0  0  0  0
    3.2154   53.9020  121.0887 C   0  0  0  0  0  0  0  0  0  0  0  0
    2.7526   52.7025  120.5140 F   0  0  0  0  0  0  0  0  0  0  0  0
    4.6647   53.9137  120.9934 C   0  0  0  0  0  0  0  0  0  0  0  0
    5.4452   53.9938  122.0261 C   0  0  0  0  0  0  0  0  0  0  0  0
    8.0908   48.1388  130.1844 O   0  0  0  0  0  0  0  0  0  0  0  0
   10.5037   46.7309  133.1767 C   0  0  0  0  0  0  0  0  0  0  0  0
    9.7122   47.1871  132.1515 C   0  0  0  0  0  0  0  0  0  0  0  0
    9.8960   46.7988  130.8480 C   0  0  0  0  0  0  0  0  0  0  0  0
    9.0757   47.2748  129.8250 C   0  0  0  0  0  0  0  0  0  0  0  0
    9.3595   46.8104  128.5642 C   0  0  0  0  0  0  0  0  0  0  0  0
   10.3861   45.9319  128.3248 C   0  0  0  0  0  0  0  0  0  0  0  0
   11.1357   45.5099  129.3306 N   0  0  0  0  0  0  0  0  0  0  0  0
   10.9283   45.9163  130.6113 C   0  0  0  0  0  0  0  0  0  0  0  0
   11.7411   45.4402  131.6187 C   0  0  0  0  0  0  0  0  0  0  0  0
   11.5175   45.8572  132.9045 C   0  0  0  0  0  0  0  0  0  0  0  0
    9.3680   46.5251  135.3486 C   0  0  0  0  0  0  0  0  0  0  0  0
   10.2825   47.1503  134.4879 O   0  0  0  0  0  0  0  0  0  0  0  0
   12.3569   45.3549  133.8891 O   0  0  0  0  0  0  0  0  0  0  0  0
   12.3841   44.0232  134.2964 C   0  0  0  0  0  0  0  0  0  0  0  0
   11.0359   43.4020  134.0375 C   0  0  0  0  0  0  0  0  0  0  0  0
   11.0758   42.4314  132.8921 C   0  0  0  0  0  0  0  0  0  0  0  0
    9.8421   42.4359  132.1726 N   0  0  0  0  0  0  0  0  0  0  0  0
    8.8693   43.3760  132.6257 C   0  0  0  0  0  0  0  0  0  0  0  0
    8.1305   43.8864  131.3849 C   0  0  0  0  0  0  0  0  0  0  0  0
    8.4951   42.8231  130.3656 C   0  0  0  0  0  0  0  0  0  0  0  0
    9.9573   42.5560  130.7516 C   0  0  0  0  0  0  0  0  0  0  0  0
 37 38  1  0  0  0
 38 27  1  0  0  0
 27 28  2  0  0  0
 28 29  1  0  0  0
 29 30  2  0  0  0
 30 26  1  0  0  0
 26  1  1  0  0  0
  1  2  2  0  0  0
  2  3  1  0  0  0
  3  4  2  0  0  0
  4  8  1  0  0  0
  8  9  1  0  0  0
  9 10  2  0  0  0
  9 12  1  0  0  0
 12 13  1  0  0  0
 13 14  1  0  0  0
 12 15  1  0  0  0
 15 16  2  0  0  0
 15 17  1  0  0  0
 17 19  1  0  0  0
 19 20  2  0  0  0
 20 21  1  0  0  0
 21 22  1  0  0  0
 22 23  1  0  0  0
 22 24  1  0  0  0
 24 25  2  0  0  0
  4  5  1  0  0  0
  5  6  2  0  0  0
  6  7  1  0  0  0
 30 31  1  0  0  0
 31 32  2  0  0  0
 32 33  1  0  0  0
 33 34  2  0  0  0
 34 35  1  0  0  0
 35 36  2  0  0  0
 36 39  1  0  0  0
 39 40  1  0  0  0
 40 41  1  0  0  0
 41 42  1  0  0  0
 42 43  1  0  0  0
 43 44  1  0  0  0
 44 45  1  0  0  0
 45 46  1  0  0  0
 46 47  1  0  0  0
 36 27  1  0  0  0
 47 43  1  0  0  0
 34 29  1  0  0  0
  6  1  1  0  0  0
 14 12  1  0  0  0
 25 19  1  0  0  0
  8 11  1  0  0  0
 17 18  1  0  0  0
M  END
> <minimizedAffinity>
3.51099

> <CNNscore>
0.3551726341

> <CNNaffinity>
7.7835097313

> <CNN_VS>
2.7644896507

> <CNNaffinity_variance>
0.3215298653

$$$$
[H]C1=C([H])C([H])(F)C([H])([H])C([H])=C1N([H])C(=O)C1(C(=O)N([H])c2c([H])c([H])c(Oc3c([H])c([H])nc4c([H])c(OC([H])([H])C([H])([H])C([H])([H])N5C([H])([H])C([H])([H])C([H])([H])C5([H])[H])c(OC([H])([H])[H])c([H])c34)c(F)c2[H])C([H])([H])C1([H])[H]


 47 52  0  0  0  0  0  0  0  0999 V2000
    7.3089   49.7234  129.7824 C   0  0  0  0  0  0  0  0  0  0  0  0
    7.9146   49.8617  128.5411 C   0  0  0  0  0  0  0  0  0  0  0  0
    7.7178   50.9877  127.7845 C   0  0  0  0  0  0  0  0  0  0  0  0
    6.9080   52.0565  128.2019 C   0  0  0  0  0  0  0  0  0  0  0  0
    6.3116   51.9184  129.4243 C   0  0  0  0  0  0  0  0  0  0  0  0
    6.5164   50.7608  130.1991 C   0  0  0  0  0  0  0  0  0  0  0  0
    5.8982   50.7158  131.4066 F   0  0  0  0  0  0  0  0  0  0  0  0
    6.7411   53.1790  127.3354 N   0  0  0  0  0  0  0  0  0  0  0  0
    7.5031   54.3400  127.2969 C   0  0  0  0  0  0  0  0  0  0  0  0
    8.4623   54.4284  128.1449 O   0  0  0  0  0  0  0  0  0  0  0  0
    5.8754   53.0744  126.7037 H   0  0  0  0  0  0  0  0  0  0  0  0
    7.3157   55.4725  126.3991 C   0  0  0  0  0  0  0  0  0  0  0  0
    8.3933   56.5525  126.4407 C   0  0  0  0  0  0  0  0  0  0  0  0
    7.1248   56.7958  127.1602 C   0  0  0  0  0  0  0  0  0  0  0  0
    6.5738   55.3627  125.1169 C   0  0  0  0  0  0  0  0  0  0  0  0
    6.5436   56.4820  124.4675 O   0  0  0  0  0  0  0  0  0  0  0  0
    5.9846   54.2116  124.6457 N   0  0  0  0  0  0  0  0  0  0  0  0
    6.1587   53.3250  125.2121 H   0  0  0  0  0  0  0  0  0  0  0  0
    5.2245   53.9849  123.4456 C   0  0  0  0  0  0  0  0  0  0  0  0
    5.7482   54.0015  122.2475 C   0  0  0  0  0  0  0  0  0  0  0  0
    4.9754   53.7698  121.0123 C   0  0  0  0  0  0  0  0  0  0  0  0
    3.5315   53.5232  121.1618 C   0  0  0  0  0  0  0  0  0  0  0  0
    2.8448   54.5235  120.4468 F   0  0  0  0  0  0  0  0  0  0  0  0
    3.0266   53.5203  122.5238 C   0  0  0  0  0  0  0  0  0  0  0  0
    3.7770   53.7266  123.5613 C   0  0  0  0  0  0  0  0  0  0  0  0
    7.4945   48.6026  130.5601 O   0  0  0  0  0  0  0  0  0  0  0  0
   10.9650   46.9163  131.9278 C   0  0  0  0  0  0  0  0  0  0  0  0
    9.7953   47.4554  131.4517 C   0  0  0  0  0  0  0  0  0  0  0  0
    8.9441   46.7618  130.6282 C   0  0  0  0  0  0  0  0  0  0  0  0
    7.7598   47.3315  130.1605 C   0  0  0  0  0  0  0  0  0  0  0  0
    6.9927   46.5355  129.3458 C   0  0  0  0  0  0  0  0  0  0  0  0
    7.3672   45.2582  129.0125 C   0  0  0  0  0  0  0  0  0  0  0  0
    8.5011   44.7636  129.4829 N   0  0  0  0  0  0  0  0  0  0  0  0
    9.3236   45.4789  130.2954 C   0  0  0  0  0  0  0  0  0  0  0  0
   10.4918   44.9092  130.7566 C   0  0  0  0  0  0  0  0  0  0  0  0
   11.3088   45.6421  131.5767 C   0  0  0  0  0  0  0  0  0  0  0  0
   11.3612   48.2566  133.9517 C   0  0  0  0  0  0  0  0  0  0  0  0
   11.8016   47.6555  132.7631 O   0  0  0  0  0  0  0  0  0  0  0  0
   12.4746   45.0328  132.0194 O   0  0  0  0  0  0  0  0  0  0  0  0
   12.5144   43.8568  132.7647 C   0  0  0  0  0  0  0  0  0  0  0  0
   12.3589   44.1945  134.2250 C   0  0  0  0  0  0  0  0  0  0  0  0
   10.9794   43.8817  134.7296 C   0  0  0  0  0  0  0  0  0  0  0  0
   10.0401   44.8682  134.3003 N   0  0  0  0  0  0  0  0  0  0  0  0
    8.8676   44.3645  133.6624 C   0  0  0  0  0  0  0  0  0  0  0  0
    7.7074   45.2730  134.0802 C   0  0  0  0  0  0  0  0  0  0  0  0
    8.4547   46.4902  134.5926 C   0  0  0  0  0  0  0  0  0  0  0  0
    9.6403   45.8140  135.2965 C   0  0  0  0  0  0  0  0  0  0  0  0
 37 38  1  0  0  0
 38 27  1  0  0  0
 27 28  2  0  0  0
 28 29  1  0  0  0
 29 30  2  0  0  0
 30 26  1  0  0  0
 26  1  1  0  0  0
  1  2  2  0  0  0
  2  3  1  0  0  0
  3  4  2  0  0  0
  4  8  1  0  0  0
  8  9  1  0  0  0
  9 10  2  0  0  0
  9 12  1  0  0  0
 12 13  1  0  0  0
 13 14  1  0  0  0
 12 15  1  0  0  0
 15 16  2  0  0  0
 15 17  1  0  0  0
 17 19  1  0  0  0
 19 20  2  0  0  0
 20 21  1  0  0  0
 21 22  1  0  0  0
 22 23  1  0  0  0
 22 24  1  0  0  0
 24 25  2  0  0  0
  4  5  1  0  0  0
  5  6  2  0  0  0
  6  7  1  0  0  0
 30 31  1  0  0  0
 31 32  2  0  0  0
 32 33  1  0  0  0
 33 34  2  0  0  0
 34 35  1  0  0  0
 35 36  2  0  0  0
 36 39  1  0  0  0
 39 40  1  0  0  0
 40 41  1  0  0  0
 41 42  1  0  0  0
 42 43  1  0  0  0
 43 44  1  0  0  0
 44 45  1  0  0  0
 45 46  1  0  0  0
 46 47  1  0  0  0
 36 27  1  0  0  0
 47 43  1  0  0  0
 34 29  1  0  0  0
  6  1  1  0  0  0
 14 12  1  0  0  0
 25 19  1  0  0  0
  8 11  1  0  0  0
 17 18  1  0  0  0
M  END
> <minimizedAffinity>
5.61027

> <CNNscore>
0.3433316052

> <CNNaffinity>
7.5849380493

> <CNN_VS>
2.6041488647

> <CNNaffinity_variance>
0.4537552297

$$$$
[H]C1=C([H])C([H])(F)C([H])([H])C([H])=C1N([H])C(=O)C1(C(=O)N([H])c2c([H])c([H])c(Oc3c([H])c([H])nc4c([H])c(OC([H])([H])C([H])([H])C([H])([H])N5C([H])([H])C([H])([H])C([H])([H])C5([H])[H])c(OC([H])([H])[H])c([H])c34)c(F)c2[H])C([H])([H])C1([H])[H]


 47 52  0  0  0  0  0  0  0  0999 V2000
   12.0098   44.9263  133.1064 C   0  0  0  0  0  0  0  0  0  0  0  0
   12.0629   45.4064  134.4078 C   0  0  0  0  0  0  0  0  0  0  0  0
   12.7104   44.7035  135.3904 C   0  0  0  0  0  0  0  0  0  0  0  0
   13.3512   43.4760  135.1557 C   0  0  0  0  0  0  0  0  0  0  0  0
   13.2975   43.0043  133.8736 C   0  0  0  0  0  0  0  0  0  0  0  0
   12.6321   43.7292  132.8667 C   0  0  0  0  0  0  0  0  0  0  0  0
   12.6425   43.1938  131.6194 F   0  0  0  0  0  0  0  0  0  0  0  0
   13.9793   42.8023  136.2466 N   0  0  0  0  0  0  0  0  0  0  0  0
   15.1928   43.1119  136.8479 C   0  0  0  0  0  0  0  0  0  0  0  0
   15.8381   44.1100  136.3635 O   0  0  0  0  0  0  0  0  0  0  0  0
   13.4253   41.9318  136.5545 H   0  0  0  0  0  0  0  0  0  0  0  0
   15.8126   42.4108  137.9649 C   0  0  0  0  0  0  0  0  0  0  0  0
   15.4543   42.9143  139.3605 C   0  0  0  0  0  0  0  0  0  0  0  0
   16.7508   43.3202  138.7771 C   0  0  0  0  0  0  0  0  0  0  0  0
   16.2184   40.9840  137.8878 C   0  0  0  0  0  0  0  0  0  0  0  0
   15.3216   40.1892  138.3770 O   0  0  0  0  0  0  0  0  0  0  0  0
   17.4034   40.5315  137.3533 N   0  0  0  0  0  0  0  0  0  0  0  0
   18.0222   41.2640  136.8869 H   0  0  0  0  0  0  0  0  0  0  0  0
   17.9187   39.1928  137.2448 C   0  0  0  0  0  0  0  0  0  0  0  0
   17.2881   38.1396  137.6957 C   0  0  0  0  0  0  0  0  0  0  0  0
   17.8098   36.7639  137.5879 C   0  0  0  0  0  0  0  0  0  0  0  0
   19.1240   36.5942  136.9460 C   0  0  0  0  0  0  0  0  0  0  0  0
   19.9875   35.9893  137.8797 F   0  0  0  0  0  0  0  0  0  0  0  0
   19.7597   37.8111  136.4718 C   0  0  0  0  0  0  0  0  0  0  0  0
   19.2289   38.9875  136.5995 C   0  0  0  0  0  0  0  0  0  0  0  0
   11.3674   45.6167  132.1034 O   0  0  0  0  0  0  0  0  0  0  0  0
    8.9786   48.5836  130.6036 C   0  0  0  0  0  0  0  0  0  0  0  0
    9.7598   47.5665  131.0944 C   0  0  0  0  0  0  0  0  0  0  0  0
    9.4851   46.2433  130.8548 C   0  0  0  0  0  0  0  0  0  0  0  0
   10.2967   45.2287  131.3625 C   0  0  0  0  0  0  0  0  0  0  0  0
    9.9179   43.9459  131.0512 C   0  0  0  0  0  0  0  0  0  0  0  0
    8.8099   43.6781  130.2874 C   0  0  0  0  0  0  0  0  0  0  0  0
    8.0725   44.6770  129.8291 N   0  0  0  0  0  0  0  0  0  0  0  0
    8.3712   45.9779  130.0871 C   0  0  0  0  0  0  0  0  0  0  0  0
    7.5664   46.9766  129.5801 C   0  0  0  0  0  0  0  0  0  0  0  0
    7.8822   48.2829  129.8468 C   0  0  0  0  0  0  0  0  0  0  0  0
    9.6404   50.3800  132.1477 C   0  0  0  0  0  0  0  0  0  0  0  0
    9.2935   49.9155  130.8703 O   0  0  0  0  0  0  0  0  0  0  0  0
    7.0476   49.2578  129.3183 O   0  0  0  0  0  0  0  0  0  0  0  0
    7.2160   50.6270  129.5101 C   0  0  0  0  0  0  0  0  0  0  0  0
    7.0803   51.3299  128.1842 C   0  0  0  0  0  0  0  0  0  0  0  0
    7.2165   52.8192  128.3218 C   0  0  0  0  0  0  0  0  0  0  0  0
    7.0323   53.4697  127.0639 N   0  0  0  0  0  0  0  0  0  0  0  0
    6.3984   54.7467  127.1188 C   0  0  0  0  0  0  0  0  0  0  0  0
    7.0477   55.6139  126.0362 C   0  0  0  0  0  0  0  0  0  0  0  0
    7.7125   54.5588  125.1716 C   0  0  0  0  0  0  0  0  0  0  0  0
    8.2038   53.5827  126.2505 C   0  0  0  0  0  0  0  0  0  0  0  0
 37 38  1  0  0  0
 38 27  1  0  0  0
 27 28  2  0  0  0
 28 29  1  0  0  0
 29 30  2  0  0  0
 30 26  1  0  0  0
 26  1  1  0  0  0
  1  2  2  0  0  0
  2  3  1  0  0  0
  3  4  2  0  0  0
  4  8  1  0  0  0
  8  9  1  0  0  0
  9 10  2  0  0  0
  9 12  1  0  0  0
 12 13  1  0  0  0
 13 14  1  0  0  0
 12 15  1  0  0  0
 15 16  2  0  0  0
 15 17  1  0  0  0
 17 19  1  0  0  0
 19 20  2  0  0  0
 20 21  1  0  0  0
 21 22  1  0  0  0
 22 23  1  0  0  0
 22 24  1  0  0  0
 24 25  2  0  0  0
  4  5  1  0  0  0
  5  6  2  0  0  0
  6  7  1  0  0  0
 30 31  1  0  0  0
 31 32  2  0  0  0
 32 33  1  0  0  0
 33 34  2  0  0  0
 34 35  1  0  0  0
 35 36  2  0  0  0
 36 39  1  0  0  0
 39 40  1  0  0  0
 40 41  1  0  0  0
 41 42  1  0  0  0
 42 43  1  0  0  0
 43 44  1  0  0  0
 44 45  1  0  0  0
 45 46  1  0  0  0
 46 47  1  0  0  0
 36 27  1  0  0  0
 47 43  1  0  0  0
 34 29  1  0  0  0
  6  1  1  0  0  0
 14 12  1  0  0  0
 25 19  1  0  0  0
  8 11  1  0  0  0
 17 18  1  0  0  0
M  END
> <minimizedAffinity>
14.00964

> <CNNscore>
0.3221577108

> <CNNaffinity>
7.3825478554

> <CNN_VS>
2.3783447742

> <CNNaffinity_variance>
0.3674663603

$$$$
[H]C1=C([H])C([H])(F)C([H])([H])C([H])=C1N([H])C(=O)C1(C(=O)N([H])c2c([H])c([H])c(Oc3c([H])c([H])nc4c([H])c(OC([H])([H])C([H])([H])C([H])([H])N5C([H])([H])C([H])([H])C([H])([H])C5([H])[H])c(OC([H])([H])[H])c([H])c34)c(F)c2[H])C([H])([H])C1([H])[H]


 47 52  0  0  0  0  0  0  0  0999 V2000
    7.4607   49.9838  130.0576 C   0  0  0  0  0  0  0  0  0  0  0  0
    7.1898   51.2830  130.4648 C   0  0  0  0  0  0  0  0  0  0  0  0
    6.9923   52.2807  129.5459 C   0  0  0  0  0  0  0  0  0  0  0  0
    7.0489   52.0645  128.1594 C   0  0  0  0  0  0  0  0  0  0  0  0
    7.3164   50.7845  127.7601 C   0  0  0  0  0  0  0  0  0  0  0  0
    7.5180   49.7620  128.7066 C   0  0  0  0  0  0  0  0  0  0  0  0
    7.7622   48.5184  128.2206 F   0  0  0  0  0  0  0  0  0  0  0  0
    6.8549   53.1701  127.2770 N   0  0  0  0  0  0  0  0  0  0  0  0
    7.5764   54.3565  127.2342 C   0  0  0  0  0  0  0  0  0  0  0  0
    8.5203   54.4885  128.0938 O   0  0  0  0  0  0  0  0  0  0  0  0
    6.0022   53.0277  126.6351 H   0  0  0  0  0  0  0  0  0  0  0  0
    7.3621   55.4710  126.3201 C   0  0  0  0  0  0  0  0  0  0  0  0
    8.3905   56.5973  126.3758 C   0  0  0  0  0  0  0  0  0  0  0  0
    7.0955   56.7920  127.0621 C   0  0  0  0  0  0  0  0  0  0  0  0
    6.6571   55.3165  125.0218 C   0  0  0  0  0  0  0  0  0  0  0  0
    7.1037   56.1291  124.1186 O   0  0  0  0  0  0  0  0  0  0  0  0
    5.6473   54.4135  124.7780 N   0  0  0  0  0  0  0  0  0  0  0  0
    5.4295   53.7245  125.5622 H   0  0  0  0  0  0  0  0  0  0  0  0
    4.8762   54.1867  123.5851 C   0  0  0  0  0  0  0  0  0  0  0  0
    3.5688   54.1680  123.5654 C   0  0  0  0  0  0  0  0  0  0  0  0
    2.7710   53.9364  122.3463 C   0  0  0  0  0  0  0  0  0  0  0  0
    3.5117   53.7000  121.0959 C   0  0  0  0  0  0  0  0  0  0  0  0
    3.1443   52.4310  120.6079 F   0  0  0  0  0  0  0  0  0  0  0  0
    4.9600   53.7369  121.2004 C   0  0  0  0  0  0  0  0  0  0  0  0
    5.5877   53.9549  122.3142 C   0  0  0  0  0  0  0  0  0  0  0  0
    7.6597   48.9658  130.9629 O   0  0  0  0  0  0  0  0  0  0  0  0
    9.9577   45.7253  129.9747 C   0  0  0  0  0  0  0  0  0  0  0  0
    9.2059   46.8175  130.3316 C   0  0  0  0  0  0  0  0  0  0  0  0
    9.5286   47.6193  131.3977 C   0  0  0  0  0  0  0  0  0  0  0  0
    8.7495   48.7254  131.7377 C   0  0  0  0  0  0  0  0  0  0  0  0
    9.1780   49.4495  132.8231 C   0  0  0  0  0  0  0  0  0  0  0  0
   10.3034   49.1070  133.5295 C   0  0  0  0  0  0  0  0  0  0  0  0
   11.0087   48.0477  133.1659 N   0  0  0  0  0  0  0  0  0  0  0  0
   10.6597   47.2723  132.1052 C   0  0  0  0  0  0  0  0  0  0  0  0
   11.4355   46.1816  131.7725 C   0  0  0  0  0  0  0  0  0  0  0  0
   11.0721   45.4115  130.6991 C   0  0  0  0  0  0  0  0  0  0  0  0
    8.8143   43.7771  129.0018 C   0  0  0  0  0  0  0  0  0  0  0  0
    9.5947   44.9367  128.8835 O   0  0  0  0  0  0  0  0  0  0  0  0
   11.8791   44.3234  130.3970 O   0  0  0  0  0  0  0  0  0  0  0  0
   12.1006   43.2461  131.2515 C   0  0  0  0  0  0  0  0  0  0  0  0
   10.7847   42.5739  131.5469 C   0  0  0  0  0  0  0  0  0  0  0  0
   10.4185   42.6712  133.0002 C   0  0  0  0  0  0  0  0  0  0  0  0
    9.9881   43.9916  133.3335 N   0  0  0  0  0  0  0  0  0  0  0  0
    8.6237   44.2866  133.0384 C   0  0  0  0  0  0  0  0  0  0  0  0
    8.1160   45.2083  134.1513 C   0  0  0  0  0  0  0  0  0  0  0  0
    9.4222   45.6936  134.7522 C   0  0  0  0  0  0  0  0  0  0  0  0
   10.2595   44.4085  134.6749 C   0  0  0  0  0  0  0  0  0  0  0  0
 37 38  1  0  0  0
 38 27  1  0  0  0
 27 28  2  0  0  0
 28 29  1  0  0  0
 29 30  2  0  0  0
 30 26  1  0  0  0
 26  1  1  0  0  0
  1  2  2  0  0  0
  2  3  1  0  0  0
  3  4  2  0  0  0
  4  8  1  0  0  0
  8  9  1  0  0  0
  9 10  2  0  0  0
  9 12  1  0  0  0
 12 13  1  0  0  0
 13 14  1  0  0  0
 12 15  1  0  0  0
 15 16  2  0  0  0
 15 17  1  0  0  0
 17 19  1  0  0  0
 19 20  2  0  0  0
 20 21  1  0  0  0
 21 22  1  0  0  0
 22 23  1  0  0  0
 22 24  1  0  0  0
 24 25  2  0  0  0
  4  5  1  0  0  0
  5  6  2  0  0  0
  6  7  1  0  0  0
 30 31  1  0  0  0
 31 32  2  0  0  0
 32 33  1  0  0  0
 33 34  2  0  0  0
 34 35  1  0  0  0
 35 36  2  0  0  0
 36 39  1  0  0  0
 39 40  1  0  0  0
 40 41  1  0  0  0
 41 42  1  0  0  0
 42 43  1  0  0  0
 43 44  1  0  0  0
 44 45  1  0  0  0
 45 46  1  0  0  0
 46 47  1  0  0  0
 36 27  1  0  0  0
 47 43  1  0  0  0
 34 29  1  0  0  0
  6  1  1  0  0  0
 14 12  1  0  0  0
 25 19  1  0  0  0
  8 11  1  0  0  0
 17 18  1  0  0  0
M  END
> <minimizedAffinity>
1.86469

> <CNNscore>
0.3155398667

> <CNNaffinity>
7.6860456467

> <CNN_VS>
2.4252538681

> <CNNaffinity_variance>
0.5357741117

$$$$
[H]C1=C([H])C([H])(F)C([H])([H])C([H])=C1N([H])C(=O)C1(C(=O)N([H])c2c([H])c([H])c(Oc3c([H])c([H])nc4c([H])c(OC([H])([H])C([H])([H])C([H])([H])N5C([H])([H])C([H])([H])C([H])([H])C5([H])[H])c(OC([H])([H])[H])c([H])c34)c(F)c2[H])C([H])([H])C1([H])[H]


 47 52  0  0  0  0  0  0  0  0999 V2000
    7.1950   47.9271  129.6589 C   0  0  0  0  0  0  0  0  0  0  0  0
    8.2786   48.7902  129.7463 C   0  0  0  0  0  0  0  0  0  0  0  0
    8.1539   50.1118  129.4046 C   0  0  0  0  0  0  0  0  0  0  0  0
    6.9487   50.6734  128.9522 C   0  0  0  0  0  0  0  0  0  0  0  0
    5.8826   49.8218  128.8662 C   0  0  0  0  0  0  0  0  0  0  0  0
    6.0141   48.4651  129.2186 C   0  0  0  0  0  0  0  0  0  0  0  0
    4.9000   47.6964  129.1177 F   0  0  0  0  0  0  0  0  0  0  0  0
    6.9193   52.0554  128.5948 N   0  0  0  0  0  0  0  0  0  0  0  0
    7.2203   52.6178  127.3607 C   0  0  0  0  0  0  0  0  0  0  0  0
    7.5815   51.8096  126.4315 O   0  0  0  0  0  0  0  0  0  0  0  0
    6.6840   52.6838  129.4369 H   0  0  0  0  0  0  0  0  0  0  0  0
    7.1790   54.0336  127.0180 C   0  0  0  0  0  0  0  0  0  0  0  0
    7.1356   55.0108  128.1896 C   0  0  0  0  0  0  0  0  0  0  0  0
    5.8752   54.7081  127.4784 C   0  0  0  0  0  0  0  0  0  0  0  0
    7.7647   54.5704  125.7629 C   0  0  0  0  0  0  0  0  0  0  0  0
    8.9951   54.9433  125.9131 O   0  0  0  0  0  0  0  0  0  0  0  0
    7.0994   54.6628  124.5616 N   0  0  0  0  0  0  0  0  0  0  0  0
    6.1243   54.2325  124.5265 H   0  0  0  0  0  0  0  0  0  0  0  0
    7.5427   55.1818  123.2953 C   0  0  0  0  0  0  0  0  0  0  0  0
    7.1835   54.6760  122.1441 C   0  0  0  0  0  0  0  0  0  0  0  0
    7.6336   55.2028  120.8416 C   0  0  0  0  0  0  0  0  0  0  0  0
    8.5510   56.3541  120.8655 C   0  0  0  0  0  0  0  0  0  0  0  0
    9.7409   55.9736  120.2153 F   0  0  0  0  0  0  0  0  0  0  0  0
    8.9020   56.8577  122.1819 C   0  0  0  0  0  0  0  0  0  0  0  0
    8.4558   56.3400  123.2842 C   0  0  0  0  0  0  0  0  0  0  0  0
    7.2968   46.5970  129.9993 O   0  0  0  0  0  0  0  0  0  0  0  0
    9.8395   43.3968  130.2270 C   0  0  0  0  0  0  0  0  0  0  0  0
    8.9804   44.4671  130.1821 C   0  0  0  0  0  0  0  0  0  0  0  0
    8.3572   44.9610  131.3008 C   0  0  0  0  0  0  0  0  0  0  0  0
    7.4909   46.0520  131.2286 C   0  0  0  0  0  0  0  0  0  0  0  0
    6.9318   46.4529  132.4171 C   0  0  0  0  0  0  0  0  0  0  0  0
    7.2082   45.8202  133.6029 C   0  0  0  0  0  0  0  0  0  0  0  0
    8.0378   44.7891  133.6179 N   0  0  0  0  0  0  0  0  0  0  0  0
    8.6372   44.3229  132.4902 C   0  0  0  0  0  0  0  0  0  0  0  0
    9.4947   43.2455  132.5685 C   0  0  0  0  0  0  0  0  0  0  0  0
   10.0930   42.7892  131.4235 C   0  0  0  0  0  0  0  0  0  0  0  0
   10.3260   43.5612  127.8217 C   0  0  0  0  0  0  0  0  0  0  0  0
   10.4526   42.9266  129.0664 O   0  0  0  0  0  0  0  0  0  0  0  0
   10.9491   41.7035  131.5447 O   0  0  0  0  0  0  0  0  0  0  0  0
   12.1582   41.7274  132.2357 C   0  0  0  0  0  0  0  0  0  0  0  0
   12.6790   43.1410  132.2669 C   0  0  0  0  0  0  0  0  0  0  0  0
   12.5262   43.7657  133.6241 C   0  0  0  0  0  0  0  0  0  0  0  0
   12.2752   45.1677  133.5182 N   0  0  0  0  0  0  0  0  0  0  0  0
   12.1547   45.6723  132.1892 C   0  0  0  0  0  0  0  0  0  0  0  0
   11.0901   46.7729  132.2249 C   0  0  0  0  0  0  0  0  0  0  0  0
   11.0241   47.0722  133.7111 C   0  0  0  0  0  0  0  0  0  0  0  0
   11.1727   45.6566  134.2878 C   0  0  0  0  0  0  0  0  0  0  0  0
 37 38  1  0  0  0
 38 27  1  0  0  0
 27 28  2  0  0  0
 28 29  1  0  0  0
 29 30  2  0  0  0
 30 26  1  0  0  0
 26  1  1  0  0  0
  1  2  2  0  0  0
  2  3  1  0  0  0
  3  4  2  0  0  0
  4  8  1  0  0  0
  8  9  1  0  0  0
  9 10  2  0  0  0
  9 12  1  0  0  0
 12 13  1  0  0  0
 13 14  1  0  0  0
 12 15  1  0  0  0
 15 16  2  0  0  0
 15 17  1  0  0  0
 17 19  1  0  0  0
 19 20  2  0  0  0
 20 21  1  0  0  0
 21 22  1  0  0  0
 22 23  1  0  0  0
 22 24  1  0  0  0
 24 25  2  0  0  0
  4  5  1  0  0  0
  5  6  2  0  0  0
  6  7  1  0  0  0
 30 31  1  0  0  0
 31 32  2  0  0  0
 32 33  1  0  0  0
 33 34  2  0  0  0
 34 35  1  0  0  0
 35 36  2  0  0  0
 36 39  1  0  0  0
 39 40  1  0  0  0
 40 41  1  0  0  0
 41 42  1  0  0  0
 42 43  1  0  0  0
 43 44  1  0  0  0
 44 45  1  0  0  0
 45 46  1  0  0  0
 46 47  1  0  0  0
 36 27  1  0  0  0
 47 43  1  0  0  0
 34 29  1  0  0  0
  6  1  1  0  0  0
 14 12  1  0  0  0
 25 19  1  0  0  0
  8 11  1  0  0  0
 17 18  1  0  0  0
M  END
> <minimizedAffinity>
5.96740

> <CNNscore>
0.2868434489

> <CNNaffinity>
7.6486868858

> <CNN_VS>
2.1939756870

> <CNNaffinity_variance>
0.1472404450

$$$$
[H]C1=C([H])C([H])(F)C([H])([H])C([H])=C1N([H])C(=O)C1(C(=O)N([H])c2c([H])c([H])c(Oc3c([H])c([H])nc4c([H])c(OC([H])([H])C([H])([H])C([H])([H])N5C([H])([H])C([H])([H])C([H])([H])C5([H])[H])c(OC([H])([H])[H])c([H])c34)c(F)c2[H])C([H])([H])C1([H])[H]


 47 52  0  0  0  0  0  0  0  0999 V2000
    8.2904   44.6578  131.5055 C   0  0  0  0  0  0  0  0  0  0  0  0
    7.9832   44.8186  130.1614 C   0  0  0  0  0  0  0  0  0  0  0  0
    7.3262   45.9376  129.7196 C   0  0  0  0  0  0  0  0  0  0  0  0
    6.9265   46.9767  130.5757 C   0  0  0  0  0  0  0  0  0  0  0  0
    7.2293   46.8164  131.8992 C   0  0  0  0  0  0  0  0  0  0  0  0
    7.9048   45.6662  132.3495 C   0  0  0  0  0  0  0  0  0  0  0  0
    8.1787   45.5982  133.6771 F   0  0  0  0  0  0  0  0  0  0  0  0
    6.2243   48.0934  130.0293 N   0  0  0  0  0  0  0  0  0  0  0  0
    6.7228   49.3646  129.7732 C   0  0  0  0  0  0  0  0  0  0  0  0
    7.9533   49.5724  130.0726 O   0  0  0  0  0  0  0  0  0  0  0  0
    5.1815   47.8755  129.8729 H   0  0  0  0  0  0  0  0  0  0  0  0
    5.9865   50.4891  129.2103 C   0  0  0  0  0  0  0  0  0  0  0  0
    4.5501   50.6663  129.6951 C   0  0  0  0  0  0  0  0  0  0  0  0
    4.7753   50.0358  128.3769 C   0  0  0  0  0  0  0  0  0  0  0  0
    6.6562   51.7281  128.7383 C   0  0  0  0  0  0  0  0  0  0  0  0
    7.0808   52.4622  129.7161 O   0  0  0  0  0  0  0  0  0  0  0  0
    6.8272   52.0749  127.4173 N   0  0  0  0  0  0  0  0  0  0  0  0
    6.5299   51.3486  126.6952 H   0  0  0  0  0  0  0  0  0  0  0  0
    7.4290   53.2460  126.8379 C   0  0  0  0  0  0  0  0  0  0  0  0
    7.4986   54.3985  127.4518 C   0  0  0  0  0  0  0  0  0  0  0  0
    8.1143   55.6037  126.8645 C   0  0  0  0  0  0  0  0  0  0  0  0
    8.6608   55.4809  125.5028 C   0  0  0  0  0  0  0  0  0  0  0  0
    7.9875   56.4051  124.6807 F   0  0  0  0  0  0  0  0  0  0  0  0
    8.5454   54.1694  124.8893 C   0  0  0  0  0  0  0  0  0  0  0  0
    7.9934   53.1543  125.4784 C   0  0  0  0  0  0  0  0  0  0  0  0
    8.9518   43.5436  131.9709 O   0  0  0  0  0  0  0  0  0  0  0  0
   12.2931   44.7051  129.9107 C   0  0  0  0  0  0  0  0  0  0  0  0
   11.1910   44.3076  130.6268 C   0  0  0  0  0  0  0  0  0  0  0  0
   11.2719   43.8751  131.9268 C   0  0  0  0  0  0  0  0  0  0  0  0
   10.1361   43.4795  132.6335 C   0  0  0  0  0  0  0  0  0  0  0  0
   10.3476   43.0696  133.9271 C   0  0  0  0  0  0  0  0  0  0  0  0
   11.5987   43.0507  134.4904 C   0  0  0  0  0  0  0  0  0  0  0  0
   12.6447   43.4365  133.7771 N   0  0  0  0  0  0  0  0  0  0  0  0
   12.5303   43.8574  132.4895 C   0  0  0  0  0  0  0  0  0  0  0  0
   13.6566   44.2498  131.7970 C   0  0  0  0  0  0  0  0  0  0  0  0
   13.5243   44.6739  130.5009 C   0  0  0  0  0  0  0  0  0  0  0  0
   10.9614   45.6117  128.0522 C   0  0  0  0  0  0  0  0  0  0  0  0
   12.1669   45.1383  128.5914 O   0  0  0  0  0  0  0  0  0  0  0  0
   14.6814   45.0604  129.8389 O   0  0  0  0  0  0  0  0  0  0  0  0
   15.1390   44.4889  128.6541 C   0  0  0  0  0  0  0  0  0  0  0  0
   15.9827   45.4958  127.9160 C   0  0  0  0  0  0  0  0  0  0  0  0
   16.7096   46.4152  128.8552 C   0  0  0  0  0  0  0  0  0  0  0  0
   17.7637   47.1061  128.1835 N   0  0  0  0  0  0  0  0  0  0  0  0
   17.3821   47.8133  127.0046 C   0  0  0  0  0  0  0  0  0  0  0  0
   18.2289   49.0887  126.9560 C   0  0  0  0  0  0  0  0  0  0  0  0
   19.3404   48.7429  127.9294 C   0  0  0  0  0  0  0  0  0  0  0  0
   18.5462   47.9815  129.0009 C   0  0  0  0  0  0  0  0  0  0  0  0
 37 38  1  0  0  0
 38 27  1  0  0  0
 27 28  2  0  0  0
 28 29  1  0  0  0
 29 30  2  0  0  0
 30 26  1  0  0  0
 26  1  1  0  0  0
  1  2  2  0  0  0
  2  3  1  0  0  0
  3  4  2  0  0  0
  4  8  1  0  0  0
  8  9  1  0  0  0
  9 10  2  0  0  0
  9 12  1  0  0  0
 12 13  1  0  0  0
 13 14  1  0  0  0
 12 15  1  0  0  0
 15 16  2  0  0  0
 15 17  1  0  0  0
 17 19  1  0  0  0
 19 20  2  0  0  0
 20 21  1  0  0  0
 21 22  1  0  0  0
 22 23  1  0  0  0
 22 24  1  0  0  0
 24 25  2  0  0  0
  4  5  1  0  0  0
  5  6  2  0  0  0
  6  7  1  0  0  0
 30 31  1  0  0  0
 31 32  2  0  0  0
 32 33  1  0  0  0
 33 34  2  0  0  0
 34 35  1  0  0  0
 35 36  2  0  0  0
 36 39  1  0  0  0
 39 40  1  0  0  0
 40 41  1  0  0  0
 41 42  1  0  0  0
 42 43  1  0  0  0
 43 44  1  0  0  0
 44 45  1  0  0  0
 45 46  1  0  0  0
 46 47  1  0  0  0
 36 27  1  0  0  0
 47 43  1  0  0  0
 34 29  1  0  0  0
  6  1  1  0  0  0
 14 12  1  0  0  0
 25 19  1  0  0  0
  8 11  1  0  0  0
 17 18  1  0  0  0
M  END
> <minimizedAffinity>
21.55842

> <CNNscore>
0.2811762094

> <CNNaffinity>
7.6253919601

> <CNN_VS>
2.1440787315

> <CNNaffinity_variance>
0.5296447873

$$$$
[H]C1=C([H])C([H])(F)C([H])([H])C([H])=C1N([H])C(=O)C1(C(=O)N([H])c2c([H])c([H])c(Oc3c([H])c([H])nc4c([H])c(OC([H])([H])C([H])([H])C([H])([H])N5C([H])([H])C([H])([H])C([H])([H])C5([H])[H])c(OC([H])([H])[H])c([H])c34)c(F)c2[H])C([H])([H])C1([H])[H]


 47 52  0  0  0  0  0  0  0  0999 V2000
    8.1714   44.8449  131.9982 C   0  0  0  0  0  0  0  0  0  0  0  0
    7.6853   44.8124  130.6983 C   0  0  0  0  0  0  0  0  0  0  0  0
    7.0802   45.9116  130.1465 C   0  0  0  0  0  0  0  0  0  0  0  0
    6.9128   47.1207  130.8410 C   0  0  0  0  0  0  0  0  0  0  0  0
    7.3915   47.1509  132.1213 C   0  0  0  0  0  0  0  0  0  0  0  0
    8.0131   46.0203  132.6847 C   0  0  0  0  0  0  0  0  0  0  0  0
    8.4728   46.1450  133.9557 F   0  0  0  0  0  0  0  0  0  0  0  0
    6.2474   48.2055  130.1936 N   0  0  0  0  0  0  0  0  0  0  0  0
    6.7846   49.4349  129.8333 C   0  0  0  0  0  0  0  0  0  0  0  0
    8.0186   49.6327  130.1252 O   0  0  0  0  0  0  0  0  0  0  0  0
    5.1998   48.0047  130.0467 H   0  0  0  0  0  0  0  0  0  0  0  0
    6.0855   50.5270  129.1683 C   0  0  0  0  0  0  0  0  0  0  0  0
    4.6180   50.7165  129.5428 C   0  0  0  0  0  0  0  0  0  0  0  0
    4.9374   50.0271  128.2744 C   0  0  0  0  0  0  0  0  0  0  0  0
    6.7822   51.7473  128.6868 C   0  0  0  0  0  0  0  0  0  0  0  0
    7.3808   52.3828  129.6425 O   0  0  0  0  0  0  0  0  0  0  0  0
    6.8111   52.1712  127.3776 N   0  0  0  0  0  0  0  0  0  0  0  0
    6.3712   51.5175  126.6590 H   0  0  0  0  0  0  0  0  0  0  0  0
    7.4219   53.3358  126.7948 C   0  0  0  0  0  0  0  0  0  0  0  0
    7.4493   54.5044  127.3812 C   0  0  0  0  0  0  0  0  0  0  0  0
    8.0739   55.7031  126.7901 C   0  0  0  0  0  0  0  0  0  0  0  0
    8.6808   55.5540  125.4569 C   0  0  0  0  0  0  0  0  0  0  0  0
    8.0316   56.4473  124.5829 F   0  0  0  0  0  0  0  0  0  0  0  0
    8.6097   54.2259  124.8730 C   0  0  0  0  0  0  0  0  0  0  0  0
    8.0462   53.2181  125.4637 C   0  0  0  0  0  0  0  0  0  0  0  0
    8.7849   43.7539  132.5715 O   0  0  0  0  0  0  0  0  0  0  0  0
   11.9466   44.4255  130.0594 C   0  0  0  0  0  0  0  0  0  0  0  0
   10.9068   44.1936  130.9258 C   0  0  0  0  0  0  0  0  0  0  0  0
   11.1025   43.8997  132.2520 C   0  0  0  0  0  0  0  0  0  0  0  0
   10.0284   43.6713  133.1124 C   0  0  0  0  0  0  0  0  0  0  0  0
   10.3545   43.3890  134.4162 C   0  0  0  0  0  0  0  0  0  0  0  0
   11.6562   43.3354  134.8469 C   0  0  0  0  0  0  0  0  0  0  0  0
   12.6399   43.5602  133.9904 N   0  0  0  0  0  0  0  0  0  0  0  0
   12.4115   43.8466  132.6812 C   0  0  0  0  0  0  0  0  0  0  0  0
   13.4775   44.0740  131.8362 C   0  0  0  0  0  0  0  0  0  0  0  0
   13.2307   44.3641  130.5200 C   0  0  0  0  0  0  0  0  0  0  0  0
   10.5149   45.3140  128.2677 C   0  0  0  0  0  0  0  0  0  0  0  0
   11.7038   44.7216  128.7187 O   0  0  0  0  0  0  0  0  0  0  0  0
   14.3303   44.5866  129.7027 O   0  0  0  0  0  0  0  0  0  0  0  0
   14.3140   44.4789  128.3142 C   0  0  0  0  0  0  0  0  0  0  0  0
   15.5260   43.7034  127.8668 C   0  0  0  0  0  0  0  0  0  0  0  0
   15.7693   42.4967  128.7272 C   0  0  0  0  0  0  0  0  0  0  0  0
   16.7668   41.6505  128.1539 N   0  0  0  0  0  0  0  0  0  0  0  0
   17.8883   42.3219  127.5820 C   0  0  0  0  0  0  0  0  0  0  0  0
   19.1173   41.4501  127.8562 C   0  0  0  0  0  0  0  0  0  0  0  0
   18.4676   40.1224  128.1990 C   0  0  0  0  0  0  0  0  0  0  0  0
   17.2516   40.6059  129.0028 C   0  0  0  0  0  0  0  0  0  0  0  0
 37 38  1  0  0  0
 38 27  1  0  0  0
 27 28  2  0  0  0
 28 29  1  0  0  0
 29 30  2  0  0  0
 30 26  1  0  0  0
 26  1  1  0  0  0
  1  2  2  0  0  0
  2  3  1  0  0  0
  3  4  2  0  0  0
  4  8  1  0  0  0
  8  9  1  0  0  0
  9 10  2  0  0  0
  9 12  1  0  0  0
 12 13  1  0  0  0
 13 14  1  0  0  0
 12 15  1  0  0  0
 15 16  2  0  0  0
 15 17  1  0  0  0
 17 19  1  0  0  0
 19 20  2  0  0  0
 20 21  1  0  0  0
 21 22  1  0  0  0
 22 23  1  0  0  0
 22 24  1  0  0  0
 24 25  2  0  0  0
  4  5  1  0  0  0
  5  6  2  0  0  0
  6  7  1  0  0  0
 30 31  1  0  0  0
 31 32  2  0  0  0
 32 33  1  0  0  0
 33 34  2  0  0  0
 34 35  1  0  0  0
 35 36  2  0  0  0
 36 39  1  0  0  0
 39 40  1  0  0  0
 40 41  1  0  0  0
 41 42  1  0  0  0
 42 43  1  0  0  0
 43 44  1  0  0  0
 44 45  1  0  0  0
 45 46  1  0  0  0
 46 47  1  0  0  0
 36 27  1  0  0  0
 47 43  1  0  0  0
 34 29  1  0  0  0
  6  1  1  0  0  0
 14 12  1  0  0  0
 25 19  1  0  0  0
  8 11  1  0  0  0
 17 18  1  0  0  0
M  END
> <minimizedAffinity>
29.11928

> <CNNscore>
0.2779224217

> <CNNaffinity>
7.5823836327

> <CNN_VS>
2.1073143482

> <CNNaffinity_variance>
0.2738974690

$$$$
[H]c1nc(Oc2c([H])c([H])c(N([H])C(=O)N([H])c3c([H])c([H])c(C([H])([H])N4C([H])([H])C([H])([H])N(C([H])([H])[H])C([H])([H])C4([H])[H])c(C(F)(F)F)c3[H])c([H])c2[H])c([H])c(N([H])C([H])([H])[H])n1


 40 43  0  0  0  0  0  0  0  0999 V2000
    6.6759   50.8917  129.5867 N   0  0  0  0  0  0  0  0  0  0  0  0
    7.1501   51.8178  128.6823 C   0  0  0  0  0  0  0  0  0  0  0  0
    8.2283   51.7297  128.0941 O   0  0  0  0  0  0  0  0  0  0  0  0
    6.3195   52.9953  128.3932 N   0  0  0  0  0  0  0  0  0  0  0  0
    5.7447   50.9931  130.0696 H   0  0  0  0  0  0  0  0  0  0  0  0
    5.4237   53.2024  128.7833 H   0  0  0  0  0  0  0  0  0  0  0  0
    9.1275   47.5887  130.5472 C   0  0  0  0  0  0  0  0  0  0  0  0
    8.3627   47.5952  129.4148 C   0  0  0  0  0  0  0  0  0  0  0  0
    7.5536   48.6771  129.0562 C   0  0  0  0  0  0  0  0  0  0  0  0
    7.5193   49.7557  129.8503 C   0  0  0  0  0  0  0  0  0  0  0  0
    8.3079   49.7709  131.0142 C   0  0  0  0  0  0  0  0  0  0  0  0
    9.1034   48.7035  131.3589 C   0  0  0  0  0  0  0  0  0  0  0  0
    9.8548   48.7421  132.6136 C   0  0  0  0  0  0  0  0  0  0  0  0
   10.0177   50.1057  132.9498 F   0  0  0  0  0  0  0  0  0  0  0  0
    9.0959   48.2304  133.6773 F   0  0  0  0  0  0  0  0  0  0  0  0
   11.1249   48.2669  132.5991 F   0  0  0  0  0  0  0  0  0  0  0  0
   10.0277   46.4606  130.9658 C   0  0  0  0  0  0  0  0  0  0  0  0
    7.8209   42.0434  133.3010 C   0  0  0  0  0  0  0  0  0  0  0  0
    8.8336   42.7698  132.6102 N   0  0  0  0  0  0  0  0  0  0  0  0
    8.4857   43.1146  131.2688 C   0  0  0  0  0  0  0  0  0  0  0  0
    9.6270   44.0884  130.8354 C   0  0  0  0  0  0  0  0  0  0  0  0
    9.2613   45.3508  131.3585 N   0  0  0  0  0  0  0  0  0  0  0  0
    8.9600   45.2400  132.7328 C   0  0  0  0  0  0  0  0  0  0  0  0
    9.4298   43.8696  133.2789 C   0  0  0  0  0  0  0  0  0  0  0  0
    6.9797   53.8755  127.4630 C   0  0  0  0  0  0  0  0  0  0  0  0
    6.8713   55.2251  127.5162 C   0  0  0  0  0  0  0  0  0  0  0  0
    7.5022   55.9705  126.5235 C   0  0  0  0  0  0  0  0  0  0  0  0
    8.2144   55.3959  125.5153 C   0  0  0  0  0  0  0  0  0  0  0  0
    8.3111   53.9966  125.4888 C   0  0  0  0  0  0  0  0  0  0  0  0
    7.7077   53.2483  126.4403 C   0  0  0  0  0  0  0  0  0  0  0  0
    8.8610   56.0976  124.4918 O   0  0  0  0  0  0  0  0  0  0  0  0
    8.4871   55.9019  123.1837 C   0  0  0  0  0  0  0  0  0  0  0  0
    7.3892   55.0488  122.8923 C   0  0  0  0  0  0  0  0  0  0  0  0
    7.0108   54.8350  121.5875 C   0  0  0  0  0  0  0  0  0  0  0  0
    7.7117   55.4629  120.6132 N   0  0  0  0  0  0  0  0  0  0  0  0
    8.7490   56.2745  120.8810 C   0  0  0  0  0  0  0  0  0  0  0  0
    9.1057   56.4708  122.1557 N   0  0  0  0  0  0  0  0  0  0  0  0
    5.9623   53.9302  121.2420 N   0  0  0  0  0  0  0  0  0  0  0  0
    4.7864   53.6906  122.0132 C   0  0  0  0  0  0  0  0  0  0  0  0
    6.0727   53.3759  120.3429 H   0  0  0  0  0  0  0  0  0  0  0  0
 18 19  1  0  0  0
 19 20  1  0  0  0
 20 21  1  0  0  0
 21 22  1  0  0  0
 22 17  1  0  0  0
 17  7  1  0  0  0
  7  8  2  0  0  0
  8  9  1  0  0  0
  9 10  2  0  0  0
 10  1  1  0  0  0
  1  2  1  0  0  0
  2  3  2  0  0  0
  2  4  1  0  0  0
  4 25  1  0  0  0
 25 26  2  0  0  0
 26 27  1  0  0  0
 27 28  2  0  0  0
 28 31  1  0  0  0
 31 32  1  0  0  0
 32 33  2  0  0  0
 33 34  1  0  0  0
 34 38  1  0  0  0
 38 39  1  0  0  0
 34 35  2  0  0  0
 35 36  1  0  0  0
 36 37  2  0  0  0
 28 29  1  0  0  0
 29 30  2  0  0  0
 10 11  1  0  0  0
 11 12  2  0  0  0
 12 13  1  0  0  0
 13 14  1  0  0  0
 13 15  1  0  0  0
 13 16  1  0  0  0
 22 23  1  0  0  0
 23 24  1  0  0  0
 24 19  1  0  0  0
 12  7  1  0  0  0
 30 25  1  0  0  0
 37 32  1  0  0  0
  1  5  1  0  0  0
  4  6  1  0  0  0
 38 40  1  0  0  0
M  END
> <minimizedAffinity>
0.48230

> <CNNscore>
0.5587641597

> <CNNaffinity>
7.2289800644

> <CNN_VS>
4.0392951965

> <CNNaffinity_variance>
0.4294722080

$$$$
[H]c1nc(Oc2c([H])c([H])c(N([H])C(=O)N([H])c3c([H])c([H])c(C([H])([H])N4C([H])([H])C([H])([H])N(C([H])([H])[H])C([H])([H])C4([H])[H])c(C(F)(F)F)c3[H])c([H])c2[H])c([H])c(N([H])C([H])([H])[H])n1


 40 43  0  0  0  0  0  0  0  0999 V2000
    6.5603   50.8510  129.9376 N   0  0  0  0  0  0  0  0  0  0  0  0
    7.0151   51.5543  128.8426 C   0  0  0  0  0  0  0  0  0  0  0  0
    7.7401   51.0857  127.9645 O   0  0  0  0  0  0  0  0  0  0  0  0
    6.6129   52.9611  128.7042 N   0  0  0  0  0  0  0  0  0  0  0  0
    5.9351   51.2797  130.6697 H   0  0  0  0  0  0  0  0  0  0  0  0
    6.0266   53.4769  129.3270 H   0  0  0  0  0  0  0  0  0  0  0  0
    7.7957   46.8429  130.4390 C   0  0  0  0  0  0  0  0  0  0  0  0
    6.9945   47.2098  129.3945 C   0  0  0  0  0  0  0  0  0  0  0  0
    6.5807   48.5288  129.1873 C   0  0  0  0  0  0  0  0  0  0  0  0
    6.9802   49.4786  130.0437 C   0  0  0  0  0  0  0  0  0  0  0  0
    7.8137   49.1210  131.1183 C   0  0  0  0  0  0  0  0  0  0  0  0
    8.2185   47.8216  131.3139 C   0  0  0  0  0  0  0  0  0  0  0  0
    9.0322   47.4902  132.4838 C   0  0  0  0  0  0  0  0  0  0  0  0
    8.9094   48.5720  133.3858 F   0  0  0  0  0  0  0  0  0  0  0  0
    8.4874   46.4085  133.1928 F   0  0  0  0  0  0  0  0  0  0  0  0
   10.3719   47.3789  132.3051 F   0  0  0  0  0  0  0  0  0  0  0  0
    8.2835   45.4445  130.6935 C   0  0  0  0  0  0  0  0  0  0  0  0
   13.4755   44.5318  129.2633 C   0  0  0  0  0  0  0  0  0  0  0  0
   12.1812   44.1649  129.7333 N   0  0  0  0  0  0  0  0  0  0  0  0
   11.8787   44.6572  131.0393 C   0  0  0  0  0  0  0  0  0  0  0  0
   10.3598   44.3354  131.2068 C   0  0  0  0  0  0  0  0  0  0  0  0
    9.6793   45.3853  130.5469 N   0  0  0  0  0  0  0  0  0  0  0  0
   10.1896   45.5521  129.2416 C   0  0  0  0  0  0  0  0  0  0  0  0
   11.0831   44.3485  128.8544 C   0  0  0  0  0  0  0  0  0  0  0  0
    7.2061   53.5536  127.5325 C   0  0  0  0  0  0  0  0  0  0  0  0
    7.7349   52.8238  126.5207 C   0  0  0  0  0  0  0  0  0  0  0  0
    8.3399   53.5076  125.4692 C   0  0  0  0  0  0  0  0  0  0  0  0
    8.4163   54.8663  125.4249 C   0  0  0  0  0  0  0  0  0  0  0  0
    7.8569   55.5944  126.4855 C   0  0  0  0  0  0  0  0  0  0  0  0
    7.2638   54.9557  127.5198 C   0  0  0  0  0  0  0  0  0  0  0  0
    9.0174   55.6006  124.3966 O   0  0  0  0  0  0  0  0  0  0  0  0
    8.5003   55.5486  123.1241 C   0  0  0  0  0  0  0  0  0  0  0  0
    7.3636   54.7368  122.8658 C   0  0  0  0  0  0  0  0  0  0  0  0
    6.8422   54.6664  121.5951 C   0  0  0  0  0  0  0  0  0  0  0  0
    7.4431   55.3925  120.6223 N   0  0  0  0  0  0  0  0  0  0  0  0
    8.5164   56.1659  120.8594 C   0  0  0  0  0  0  0  0  0  0  0  0
    9.0127   56.2221  122.1008 N   0  0  0  0  0  0  0  0  0  0  0  0
    5.7478   53.8088  121.2723 N   0  0  0  0  0  0  0  0  0  0  0  0
    4.5718   53.6331  122.0605 C   0  0  0  0  0  0  0  0  0  0  0  0
    5.8204   53.2407  120.3780 H   0  0  0  0  0  0  0  0  0  0  0  0
 18 19  1  0  0  0
 19 20  1  0  0  0
 20 21  1  0  0  0
 21 22  1  0  0  0
 22 17  1  0  0  0
 17  7  1  0  0  0
  7  8  2  0  0  0
  8  9  1  0  0  0
  9 10  2  0  0  0
 10  1  1  0  0  0
  1  2  1  0  0  0
  2  3  2  0  0  0
  2  4  1  0  0  0
  4 25  1  0  0  0
 25 26  2  0  0  0
 26 27  1  0  0  0
 27 28  2  0  0  0
 28 31  1  0  0  0
 31 32  1  0  0  0
 32 33  2  0  0  0
 33 34  1  0  0  0
 34 38  1  0  0  0
 38 39  1  0  0  0
 34 35  2  0  0  0
 35 36  1  0  0  0
 36 37  2  0  0  0
 28 29  1  0  0  0
 29 30  2  0  0  0
 10 11  1  0  0  0
 11 12  2  0  0  0
 12 13  1  0  0  0
 13 14  1  0  0  0
 13 15  1  0  0  0
 13 16  1  0  0  0
 22 23  1  0  0  0
 23 24  1  0  0  0
 24 19  1  0  0  0
 12  7  1  0  0  0
 30 25  1  0  0  0
 37 32  1  0  0  0
  1  5  1  0  0  0
  4  6  1  0  0  0
 38 40  1  0  0  0
M  END
> <minimizedAffinity>
-1.35581

> <CNNscore>
0.4669577181

> <CNNaffinity>
7.1510720253

> <CNN_VS>
3.3392481804

> <CNNaffinity_variance>
0.1825937182

$$$$
[H]c1nc(Oc2c([H])c([H])c(N([H])C(=O)N([H])c3c([H])c([H])c(C([H])([H])N4C([H])([H])C([H])([H])N(C([H])([H])[H])C([H])([H])C4([H])[H])c(C(F)(F)F)c3[H])c([H])c2[H])c([H])c(N([H])C([H])([H])[H])n1


 40 43  0  0  0  0  0  0  0  0999 V2000
    6.5750   50.9202  129.7011 N   0  0  0  0  0  0  0  0  0  0  0  0
    6.9767   51.7150  128.6488 C   0  0  0  0  0  0  0  0  0  0  0  0
    7.5519   51.3010  127.6419 O   0  0  0  0  0  0  0  0  0  0  0  0
    6.7047   53.1574  128.7241 N   0  0  0  0  0  0  0  0  0  0  0  0
    6.0786   51.3047  130.5476 H   0  0  0  0  0  0  0  0  0  0  0  0
    6.2437   53.6384  129.4682 H   0  0  0  0  0  0  0  0  0  0  0  0
    7.5767   46.8213  129.5046 C   0  0  0  0  0  0  0  0  0  0  0  0
    6.2753   47.2341  129.4460 C   0  0  0  0  0  0  0  0  0  0  0  0
    5.9079   48.5821  129.4904 C   0  0  0  0  0  0  0  0  0  0  0  0
    6.8644   49.5143  129.5960 C   0  0  0  0  0  0  0  0  0  0  0  0
    8.2097   49.1085  129.6468 C   0  0  0  0  0  0  0  0  0  0  0  0
    8.5632   47.7804  129.6001 C   0  0  0  0  0  0  0  0  0  0  0  0
    9.9724   47.4066  129.7220 C   0  0  0  0  0  0  0  0  0  0  0  0
   10.7273   48.5780  129.4833 F   0  0  0  0  0  0  0  0  0  0  0  0
   10.2973   47.0709  131.0453 F   0  0  0  0  0  0  0  0  0  0  0  0
   10.4674   46.5231  128.8200 F   0  0  0  0  0  0  0  0  0  0  0  0
    8.0238   45.3881  129.4406 C   0  0  0  0  0  0  0  0  0  0  0  0
   10.0394   42.9373  133.8865 C   0  0  0  0  0  0  0  0  0  0  0  0
    9.0042   43.3953  133.0210 N   0  0  0  0  0  0  0  0  0  0  0  0
    8.8563   44.8154  132.9965 C   0  0  0  0  0  0  0  0  0  0  0  0
    7.8568   45.0572  131.8212 C   0  0  0  0  0  0  0  0  0  0  0  0
    8.6438   45.0209  130.6465 N   0  0  0  0  0  0  0  0  0  0  0  0
    9.4338   43.8515  130.6252 C   0  0  0  0  0  0  0  0  0  0  0  0
    8.9533   42.8567  131.7097 C   0  0  0  0  0  0  0  0  0  0  0  0
    7.2240   53.8405  127.5667 C   0  0  0  0  0  0  0  0  0  0  0  0
    7.9923   53.2325  126.6307 C   0  0  0  0  0  0  0  0  0  0  0  0
    8.4913   54.0109  125.5894 C   0  0  0  0  0  0  0  0  0  0  0  0
    8.2360   55.3440  125.4822 C   0  0  0  0  0  0  0  0  0  0  0  0
    7.4347   55.9444  126.4648 C   0  0  0  0  0  0  0  0  0  0  0  0
    6.9375   55.2120  127.4875 C   0  0  0  0  0  0  0  0  0  0  0  0
    8.7170   56.1710  124.4611 O   0  0  0  0  0  0  0  0  0  0  0  0
    8.3494   55.9359  123.1577 C   0  0  0  0  0  0  0  0  0  0  0  0
    7.3120   55.0052  122.8827 C   0  0  0  0  0  0  0  0  0  0  0  0
    6.9413   54.7518  121.5828 C   0  0  0  0  0  0  0  0  0  0  0  0
    7.5903   55.4168  120.5973 N   0  0  0  0  0  0  0  0  0  0  0  0
    8.5700   56.3017  120.8496 C   0  0  0  0  0  0  0  0  0  0  0  0
    8.9202   56.5358  122.1197 N   0  0  0  0  0  0  0  0  0  0  0  0
    5.9564   53.7723  121.2538 N   0  0  0  0  0  0  0  0  0  0  0  0
    4.7065   53.5976  121.9187 C   0  0  0  0  0  0  0  0  0  0  0  0
    6.1780   53.1061  120.4570 H   0  0  0  0  0  0  0  0  0  0  0  0
 18 19  1  0  0  0
 19 20  1  0  0  0
 20 21  1  0  0  0
 21 22  1  0  0  0
 22 17  1  0  0  0
 17  7  1  0  0  0
  7  8  2  0  0  0
  8  9  1  0  0  0
  9 10  2  0  0  0
 10  1  1  0  0  0
  1  2  1  0  0  0
  2  3  2  0  0  0
  2  4  1  0  0  0
  4 25  1  0  0  0
 25 26  2  0  0  0
 26 27  1  0  0  0
 27 28  2  0  0  0
 28 31  1  0  0  0
 31 32  1  0  0  0
 32 33  2  0  0  0
 33 34  1  0  0  0
 34 38  1  0  0  0
 38 39  1  0  0  0
 34 35  2  0  0  0
 35 36  1  0  0  0
 36 37  2  0  0  0
 28 29  1  0  0  0
 29 30  2  0  0  0
 10 11  1  0  0  0
 11 12  2  0  0  0
 12 13  1  0  0  0
 13 14  1  0  0  0
 13 15  1  0  0  0
 13 16  1  0  0  0
 22 23  1  0  0  0
 23 24  1  0  0  0
 24 19  1  0  0  0
 12  7  1  0  0  0
 30 25  1  0  0  0
 37 32  1  0  0  0
  1  5  1  0  0  0
  4  6  1  0  0  0
 38 40  1  0  0  0
M  END
> <minimizedAffinity>
-1.07434

> <CNNscore>
0.4656474292

> <CNNaffinity>
6.9626264572

> <CNN_VS>
3.2421290874

> <CNNaffinity_variance>
0.2245783806

$$$$
[H]c1nc(Oc2c([H])c([H])c(N([H])C(=O)N([H])c3c([H])c([H])c(C([H])([H])N4C([H])([H])C([H])([H])N(C([H])([H])[H])C([H])([H])C4([H])[H])c(C(F)(F)F)c3[H])c([H])c2[H])c([H])c(N([H])C([H])([H])[H])n1


 40 43  0  0  0  0  0  0  0  0999 V2000
    6.6018   49.5972  127.7957 N   0  0  0  0  0  0  0  0  0  0  0  0
    7.5186   48.8126  128.4623 C   0  0  0  0  0  0  0  0  0  0  0  0
    8.5700   49.2293  128.9495 O   0  0  0  0  0  0  0  0  0  0  0  0
    7.2313   47.3785  128.6069 N   0  0  0  0  0  0  0  0  0  0  0  0
    5.7070   49.2108  127.3949 H   0  0  0  0  0  0  0  0  0  0  0  0
    6.4223   46.8968  128.2736 H   0  0  0  0  0  0  0  0  0  0  0  0
    7.4887   53.6887  127.2338 C   0  0  0  0  0  0  0  0  0  0  0  0
    7.0129   53.2266  128.4285 C   0  0  0  0  0  0  0  0  0  0  0  0
    6.7253   51.8777  128.6560 C   0  0  0  0  0  0  0  0  0  0  0  0
    6.9201   50.9949  127.6672 C   0  0  0  0  0  0  0  0  0  0  0  0
    7.4193   51.4508  126.4344 C   0  0  0  0  0  0  0  0  0  0  0  0
    7.7021   52.7792  126.2191 C   0  0  0  0  0  0  0  0  0  0  0  0
    8.1578   53.2126  124.8982 C   0  0  0  0  0  0  0  0  0  0  0  0
    9.2042   54.1392  125.1113 F   0  0  0  0  0  0  0  0  0  0  0  0
    8.7838   52.1642  124.2065 F   0  0  0  0  0  0  0  0  0  0  0  0
    7.2801   53.9001  124.1261 F   0  0  0  0  0  0  0  0  0  0  0  0
    7.8314   55.1232  126.9460 C   0  0  0  0  0  0  0  0  0  0  0  0
    3.2284   56.5359  124.3670 C   0  0  0  0  0  0  0  0  0  0  0  0
    4.4243   55.7849  124.5575 N   0  0  0  0  0  0  0  0  0  0  0  0
    5.6198   56.5358  124.3425 C   0  0  0  0  0  0  0  0  0  0  0  0
    6.7466   55.5777  124.8433 C   0  0  0  0  0  0  0  0  0  0  0  0
    6.7804   55.7407  126.2480 N   0  0  0  0  0  0  0  0  0  0  0  0
    5.4845   55.5917  126.7871 C   0  0  0  0  0  0  0  0  0  0  0  0
    4.5264   54.9920  125.7292 C   0  0  0  0  0  0  0  0  0  0  0  0
    8.3061   46.7040  129.2892 C   0  0  0  0  0  0  0  0  0  0  0  0
    8.1034   45.7915  130.2701 C   0  0  0  0  0  0  0  0  0  0  0  0
    9.2212   45.2534  130.9026 C   0  0  0  0  0  0  0  0  0  0  0  0
   10.4934   45.6089  130.5723 C   0  0  0  0  0  0  0  0  0  0  0  0
   10.6712   46.5537  129.5506 C   0  0  0  0  0  0  0  0  0  0  0  0
    9.6030   47.0928  128.9200 C   0  0  0  0  0  0  0  0  0  0  0  0
   11.6484   45.1038  131.1796 O   0  0  0  0  0  0  0  0  0  0  0  0
   11.6591   44.8531  132.5310 C   0  0  0  0  0  0  0  0  0  0  0  0
   10.8354   45.6281  133.3907 C   0  0  0  0  0  0  0  0  0  0  0  0
   10.8442   45.3958  134.7461 C   0  0  0  0  0  0  0  0  0  0  0  0
   11.6508   44.4143  135.2159 N   0  0  0  0  0  0  0  0  0  0  0  0
   12.4301   43.6742  134.4087 C   0  0  0  0  0  0  0  0  0  0  0  0
   12.4114   43.9139  133.0924 N   0  0  0  0  0  0  0  0  0  0  0  0
   10.0902   46.1962  135.6562 N   0  0  0  0  0  0  0  0  0  0  0  0
    9.6312   45.7809  136.9415 C   0  0  0  0  0  0  0  0  0  0  0  0
    9.8347   47.1791  135.3454 H   0  0  0  0  0  0  0  0  0  0  0  0
 18 19  1  0  0  0
 19 20  1  0  0  0
 20 21  1  0  0  0
 21 22  1  0  0  0
 22 17  1  0  0  0
 17  7  1  0  0  0
  7  8  2  0  0  0
  8  9  1  0  0  0
  9 10  2  0  0  0
 10  1  1  0  0  0
  1  2  1  0  0  0
  2  3  2  0  0  0
  2  4  1  0  0  0
  4 25  1  0  0  0
 25 26  2  0  0  0
 26 27  1  0  0  0
 27 28  2  0  0  0
 28 31  1  0  0  0
 31 32  1  0  0  0
 32 33  2  0  0  0
 33 34  1  0  0  0
 34 38  1  0  0  0
 38 39  1  0  0  0
 34 35  2  0  0  0
 35 36  1  0  0  0
 36 37  2  0  0  0
 28 29  1  0  0  0
 29 30  2  0  0  0
 10 11  1  0  0  0
 11 12  2  0  0  0
 12 13  1  0  0  0
 13 14  1  0  0  0
 13 15  1  0  0  0
 13 16  1  0  0  0
 22 23  1  0  0  0
 23 24  1  0  0  0
 24 19  1  0  0  0
 12  7  1  0  0  0
 30 25  1  0  0  0
 37 32  1  0  0  0
  1  5  1  0  0  0
  4  6  1  0  0  0
 38 40  1  0  0  0
M  END
> <minimizedAffinity>
12.42808

> <CNNscore>
0.3510641754

> <CNNaffinity>
6.7814612389

> <CNN_VS>
2.3807280064

> <CNNaffinity_variance>
0.9397119284

$$$$
[H]c1nc(Oc2c([H])c([H])c(N([H])C(=O)N([H])c3c([H])c([H])c(C([H])([H])N4C([H])([H])C([H])([H])N(C([H])([H])[H])C([H])([H])C4([H])[H])c(C(F)(F)F)c3[H])c([H])c2[H])c([H])c(N([H])C([H])([H])[H])n1


 40 43  0  0  0  0  0  0  0  0999 V2000
    7.4338   47.8427  130.1800 N   0  0  0  0  0  0  0  0  0  0  0  0
    7.5982   49.1337  129.7253 C   0  0  0  0  0  0  0  0  0  0  0  0
    8.6267   49.7964  129.8639 O   0  0  0  0  0  0  0  0  0  0  0  0
    6.4745   49.7725  129.0259 N   0  0  0  0  0  0  0  0  0  0  0  0
    6.5417   47.2994  130.0401 H   0  0  0  0  0  0  0  0  0  0  0  0
    5.5840   49.3638  128.8319 H   0  0  0  0  0  0  0  0  0  0  0  0
   10.6021   46.0747  132.3431 C   0  0  0  0  0  0  0  0  0  0  0  0
   10.5479   45.9976  130.9799 C   0  0  0  0  0  0  0  0  0  0  0  0
    9.5248   46.5851  130.2303 C   0  0  0  0  0  0  0  0  0  0  0  0
    8.5525   47.2522  130.8665 C   0  0  0  0  0  0  0  0  0  0  0  0
    8.5977   47.3509  132.2683 C   0  0  0  0  0  0  0  0  0  0  0  0
    9.6090   46.7722  132.9986 C   0  0  0  0  0  0  0  0  0  0  0  0
    9.5756   46.8480  134.4592 C   0  0  0  0  0  0  0  0  0  0  0  0
   10.3689   47.9585  134.8283 F   0  0  0  0  0  0  0  0  0  0  0  0
    8.2958   47.1908  134.9219 F   0  0  0  0  0  0  0  0  0  0  0  0
   10.1269   45.8217  135.1535 F   0  0  0  0  0  0  0  0  0  0  0  0
   11.6895   45.4784  133.1917 C   0  0  0  0  0  0  0  0  0  0  0  0
   11.2925   40.1973  131.8545 C   0  0  0  0  0  0  0  0  0  0  0  0
   10.8128   41.5299  132.0116 N   0  0  0  0  0  0  0  0  0  0  0  0
   10.6589   41.9329  133.3729 C   0  0  0  0  0  0  0  0  0  0  0  0
   10.3699   43.4640  133.2690 C   0  0  0  0  0  0  0  0  0  0  0  0
   11.6375   44.0760  133.1288 N   0  0  0  0  0  0  0  0  0  0  0  0
   12.3643   43.4584  132.0886 C   0  0  0  0  0  0  0  0  0  0  0  0
   11.4350   42.5500  131.2472 C   0  0  0  0  0  0  0  0  0  0  0  0
    6.8004   51.1265  128.6565 C   0  0  0  0  0  0  0  0  0  0  0  0
    6.7449   52.1648  129.5253 C   0  0  0  0  0  0  0  0  0  0  0  0
    7.0193   53.4398  129.0373 C   0  0  0  0  0  0  0  0  0  0  0  0
    7.3372   53.6742  127.7343 C   0  0  0  0  0  0  0  0  0  0  0  0
    7.3899   52.5786  126.8597 C   0  0  0  0  0  0  0  0  0  0  0  0
    7.1273   51.3294  127.3070 C   0  0  0  0  0  0  0  0  0  0  0  0
    7.6152   54.9342  127.1928 O   0  0  0  0  0  0  0  0  0  0  0  0
    7.0180   55.3224  126.0173 C   0  0  0  0  0  0  0  0  0  0  0  0
    7.8069   55.4488  124.8427 C   0  0  0  0  0  0  0  0  0  0  0  0
    7.2249   55.8471  123.6621 C   0  0  0  0  0  0  0  0  0  0  0  0
    5.8949   56.1035  123.6658 N   0  0  0  0  0  0  0  0  0  0  0  0
    5.1410   55.9825  124.7719 C   0  0  0  0  0  0  0  0  0  0  0  0
    5.7227   55.5957  125.9131 N   0  0  0  0  0  0  0  0  0  0  0  0
    7.9889   56.0588  122.4751 N   0  0  0  0  0  0  0  0  0  0  0  0
    9.3968   56.2831  122.4244 C   0  0  0  0  0  0  0  0  0  0  0  0
    7.4642   56.0662  121.5518 H   0  0  0  0  0  0  0  0  0  0  0  0
 18 19  1  0  0  0
 19 20  1  0  0  0
 20 21  1  0  0  0
 21 22  1  0  0  0
 22 17  1  0  0  0
 17  7  1  0  0  0
  7  8  2  0  0  0
  8  9  1  0  0  0
  9 10  2  0  0  0
 10  1  1  0  0  0
  1  2  1  0  0  0
  2  3  2  0  0  0
  2  4  1  0  0  0
  4 25  1  0  0  0
 25 26  2  0  0  0
 26 27  1  0  0  0
 27 28  2  0  0  0
 28 31  1  0  0  0
 31 32  1  0  0  0
 32 33  2  0  0  0
 33 34  1  0  0  0
 34 38  1  0  0  0
 38 39  1  0  0  0
 34 35  2  0  0  0
 35 36  1  0  0  0
 36 37  2  0  0  0
 28 29  1  0  0  0
 29 30  2  0  0  0
 10 11  1  0  0  0
 11 12  2  0  0  0
 12 13  1  0  0  0
 13 14  1  0  0  0
 13 15  1  0  0  0
 13 16  1  0  0  0
 22 23  1  0  0  0
 23 24  1  0  0  0
 24 19  1  0  0  0
 12  7  1  0  0  0
 30 25  1  0  0  0
 37 32  1  0  0  0
  1  5  1  0  0  0
  4  6  1  0  0  0
 38 40  1  0  0  0
M  END
> <minimizedAffinity>
5.57840

> <CNNscore>
0.3466335833

> <CNNaffinity>
6.9217185974

> <CNN_VS>
2.3993000984

> <CNNaffinity_variance>
0.8973463774

$$$$
[H]c1nc(Oc2c([H])c([H])c(N([H])C(=O)N([H])c3c([H])c([H])c(C([H])([H])N4C([H])([H])C([H])([H])N(C([H])([H])[H])C([H])([H])C4([H])[H])c(C(F)(F)F)c3[H])c([H])c2[H])c([H])c(N([H])C([H])([H])[H])n1


 40 43  0  0  0  0  0  0  0  0999 V2000
    6.7824   46.9371  130.0087 N   0  0  0  0  0  0  0  0  0  0  0  0
    7.0273   48.2415  129.6358 C   0  0  0  0  0  0  0  0  0  0  0  0
    8.1156   48.8065  129.7482 O   0  0  0  0  0  0  0  0  0  0  0  0
    5.9200   49.0204  129.0638 N   0  0  0  0  0  0  0  0  0  0  0  0
    5.8398   46.4798  129.8939 H   0  0  0  0  0  0  0  0  0  0  0  0
    4.9872   48.7008  128.9045 H   0  0  0  0  0  0  0  0  0  0  0  0
    9.9195   44.7593  131.8139 C   0  0  0  0  0  0  0  0  0  0  0  0
    9.7724   44.7920  130.4557 C   0  0  0  0  0  0  0  0  0  0  0  0
    8.7575   45.5157  129.8232 C   0  0  0  0  0  0  0  0  0  0  0  0
    7.8880   46.2077  130.5716 C   0  0  0  0  0  0  0  0  0  0  0  0
    8.0305   46.1943  131.9704 C   0  0  0  0  0  0  0  0  0  0  0  0
    9.0332   45.4818  132.5851 C   0  0  0  0  0  0  0  0  0  0  0  0
    9.0993   45.4474  134.0462 C   0  0  0  0  0  0  0  0  0  0  0  0
    8.2510   46.4757  134.5173 F   0  0  0  0  0  0  0  0  0  0  0  0
    8.5121   44.2788  134.5548 F   0  0  0  0  0  0  0  0  0  0  0  0
   10.2915   45.7311  134.6271 F   0  0  0  0  0  0  0  0  0  0  0  0
   11.0039   44.0142  132.5398 C   0  0  0  0  0  0  0  0  0  0  0  0
   10.6946   39.1188  130.1366 C   0  0  0  0  0  0  0  0  0  0  0  0
   10.4706   40.0617  131.1814 N   0  0  0  0  0  0  0  0  0  0  0  0
   11.6542   40.4339  131.8885 C   0  0  0  0  0  0  0  0  0  0  0  0
   11.1843   41.6240  132.7838 C   0  0  0  0  0  0  0  0  0  0  0  0
   11.2125   42.7603  131.9418 N   0  0  0  0  0  0  0  0  0  0  0  0
   10.5065   42.4996  130.7478 C   0  0  0  0  0  0  0  0  0  0  0  0
    9.6772   41.1995  130.8849 C   0  0  0  0  0  0  0  0  0  0  0  0
    6.3363   50.3678  128.7690 C   0  0  0  0  0  0  0  0  0  0  0  0
    7.5643   50.8483  129.0806 C   0  0  0  0  0  0  0  0  0  0  0  0
    7.8307   52.1871  128.8054 C   0  0  0  0  0  0  0  0  0  0  0  0
    6.9109   53.0175  128.2414 C   0  0  0  0  0  0  0  0  0  0  0  0
    5.6495   52.4901  127.9272 C   0  0  0  0  0  0  0  0  0  0  0  0
    5.3638   51.1933  128.1842 C   0  0  0  0  0  0  0  0  0  0  0  0
    7.1255   54.3693  127.9505 O   0  0  0  0  0  0  0  0  0  0  0  0
    7.1840   54.7885  126.6428 C   0  0  0  0  0  0  0  0  0  0  0  0
    6.0788   55.4835  126.0830 C   0  0  0  0  0  0  0  0  0  0  0  0
    6.1189   55.8990  124.7726 C   0  0  0  0  0  0  0  0  0  0  0  0
    7.2353   55.6274  124.0553 N   0  0  0  0  0  0  0  0  0  0  0  0
    8.2866   54.9738  124.5788 C   0  0  0  0  0  0  0  0  0  0  0  0
    8.2312   54.5746  125.8548 N   0  0  0  0  0  0  0  0  0  0  0  0
    5.0053   56.5350  124.1457 N   0  0  0  0  0  0  0  0  0  0  0  0
    3.6659   56.5342  124.6365 C   0  0  0  0  0  0  0  0  0  0  0  0
    5.1842   57.0386  123.2280 H   0  0  0  0  0  0  0  0  0  0  0  0
 18 19  1  0  0  0
 19 20  1  0  0  0
 20 21  1  0  0  0
 21 22  1  0  0  0
 22 17  1  0  0  0
 17  7  1  0  0  0
  7  8  2  0  0  0
  8  9  1  0  0  0
  9 10  2  0  0  0
 10  1  1  0  0  0
  1  2  1  0  0  0
  2  3  2  0  0  0
  2  4  1  0  0  0
  4 25  1  0  0  0
 25 26  2  0  0  0
 26 27  1  0  0  0
 27 28  2  0  0  0
 28 31  1  0  0  0
 31 32  1  0  0  0
 32 33  2  0  0  0
 33 34  1  0  0  0
 34 38  1  0  0  0
 38 39  1  0  0  0
 34 35  2  0  0  0
 35 36  1  0  0  0
 36 37  2  0  0  0
 28 29  1  0  0  0
 29 30  2  0  0  0
 10 11  1  0  0  0
 11 12  2  0  0  0
 12 13  1  0  0  0
 13 14  1  0  0  0
 13 15  1  0  0  0
 13 16  1  0  0  0
 22 23  1  0  0  0
 23 24  1  0  0  0
 24 19  1  0  0  0
 12  7  1  0  0  0
 30 25  1  0  0  0
 37 32  1  0  0  0
  1  5  1  0  0  0
  4  6  1  0  0  0
 38 40  1  0  0  0
M  END
> <minimizedAffinity>
16.64118

> <CNNscore>
0.3439059556

> <CNNaffinity>
7.0877137184

> <CNN_VS>
2.4375069141

> <CNNaffinity_variance>
1.7671592236

$$$$
[H]c1nc(Oc2c([H])c([H])c(N([H])C(=O)N([H])c3c([H])c([H])c(C([H])([H])N4C([H])([H])C([H])([H])N(C([H])([H])[H])C([H])([H])C4([H])[H])c(C(F)(F)F)c3[H])c([H])c2[H])c([H])c(N([H])C([H])([H])[H])n1


 40 43  0  0  0  0  0  0  0  0999 V2000
    7.0439   50.0455  130.1287 N   0  0  0  0  0  0  0  0  0  0  0  0
    7.3870   50.9468  129.1436 C   0  0  0  0  0  0  0  0  0  0  0  0
    8.4365   50.9114  128.5005 O   0  0  0  0  0  0  0  0  0  0  0  0
    6.4422   52.0286  128.8318 N   0  0  0  0  0  0  0  0  0  0  0  0
    6.1339   50.0996  130.6576 H   0  0  0  0  0  0  0  0  0  0  0  0
    5.5533   52.1847  129.2598 H   0  0  0  0  0  0  0  0  0  0  0  0
    9.7986   46.9123  130.7900 C   0  0  0  0  0  0  0  0  0  0  0  0
   10.0087   48.1589  131.3089 C   0  0  0  0  0  0  0  0  0  0  0  0
    9.1108   49.2143  131.1254 C   0  0  0  0  0  0  0  0  0  0  0  0
    7.9964   49.0044  130.4119 C   0  0  0  0  0  0  0  0  0  0  0  0
    7.7585   47.7250  129.8794 C   0  0  0  0  0  0  0  0  0  0  0  0
    8.6455   46.6910  130.0663 C   0  0  0  0  0  0  0  0  0  0  0  0
    8.3840   45.3965  129.4370 C   0  0  0  0  0  0  0  0  0  0  0  0
    7.2754   45.5767  128.5784 F   0  0  0  0  0  0  0  0  0  0  0  0
    9.4211   45.0369  128.5627 F   0  0  0  0  0  0  0  0  0  0  0  0
    7.9976   44.3748  130.2408 F   0  0  0  0  0  0  0  0  0  0  0  0
   10.7218   45.7412  130.9754 C   0  0  0  0  0  0  0  0  0  0  0  0
   11.3460   43.5731  135.9499 C   0  0  0  0  0  0  0  0  0  0  0  0
   11.3653   43.5645  134.5251 N   0  0  0  0  0  0  0  0  0  0  0  0
   10.0688   43.6154  133.9284 C   0  0  0  0  0  0  0  0  0  0  0  0
   10.3738   43.8396  132.4133 C   0  0  0  0  0  0  0  0  0  0  0  0
   10.5981   45.2296  132.2779 N   0  0  0  0  0  0  0  0  0  0  0  0
   11.5499   45.6642  133.2251 C   0  0  0  0  0  0  0  0  0  0  0  0
   12.2602   44.4500  133.8715 C   0  0  0  0  0  0  0  0  0  0  0  0
    6.9729   52.8983  127.8131 C   0  0  0  0  0  0  0  0  0  0  0  0
    7.4945   52.4425  126.6485 C   0  0  0  0  0  0  0  0  0  0  0  0
    8.0376   53.3742  125.7675 C   0  0  0  0  0  0  0  0  0  0  0  0
    8.0613   54.7092  126.0339 C   0  0  0  0  0  0  0  0  0  0  0  0
    7.5109   55.1509  127.2463 C   0  0  0  0  0  0  0  0  0  0  0  0
    6.9773   54.2674  128.1207 C   0  0  0  0  0  0  0  0  0  0  0  0
    8.5994   55.6845  125.1870 O   0  0  0  0  0  0  0  0  0  0  0  0
    8.3658   55.6223  123.8339 C   0  0  0  0  0  0  0  0  0  0  0  0
    7.3035   54.8153  123.3459 C   0  0  0  0  0  0  0  0  0  0  0  0
    7.0652   54.7348  121.9938 C   0  0  0  0  0  0  0  0  0  0  0  0
    7.8664   55.4465  121.1654 N   0  0  0  0  0  0  0  0  0  0  0  0
    8.8709   56.2153  121.6196 C   0  0  0  0  0  0  0  0  0  0  0  0
    9.0909   56.2815  122.9378 N   0  0  0  0  0  0  0  0  0  0  0  0
    6.0576   53.8809  121.4522 N   0  0  0  0  0  0  0  0  0  0  0  0
    4.7464   53.7042  121.9855 C   0  0  0  0  0  0  0  0  0  0  0  0
    6.3089   53.3166  120.5884 H   0  0  0  0  0  0  0  0  0  0  0  0
 18 19  1  0  0  0
 19 20  1  0  0  0
 20 21  1  0  0  0
 21 22  1  0  0  0
 22 17  1  0  0  0
 17  7  1  0  0  0
  7  8  2  0  0  0
  8  9  1  0  0  0
  9 10  2  0  0  0
 10  1  1  0  0  0
  1  2  1  0  0  0
  2  3  2  0  0  0
  2  4  1  0  0  0
  4 25  1  0  0  0
 25 26  2  0  0  0
 26 27  1  0  0  0
 27 28  2  0  0  0
 28 31  1  0  0  0
 31 32  1  0  0  0
 32 33  2  0  0  0
 33 34  1  0  0  0
 34 38  1  0  0  0
 38 39  1  0  0  0
 34 35  2  0  0  0
 35 36  1  0  0  0
 36 37  2  0  0  0
 28 29  1  0  0  0
 29 30  2  0  0  0
 10 11  1  0  0  0
 11 12  2  0  0  0
 12 13  1  0  0  0
 13 14  1  0  0  0
 13 15  1  0  0  0
 13 16  1  0  0  0
 22 23  1  0  0  0
 23 24  1  0  0  0
 24 19  1  0  0  0
 12  7  1  0  0  0
 30 25  1  0  0  0
 37 32  1  0  0  0
  1  5  1  0  0  0
  4  6  1  0  0  0
 38 40  1  0  0  0
M  END
> <minimizedAffinity>
1.32365

> <CNNscore>
0.3399603367

> <CNNaffinity>
6.9683160782

> <CNN_VS>
2.3689510822

> <CNNaffinity_variance>
0.3590361476

$$$$
[H]c1nc(Oc2c([H])c([H])c(N([H])C(=O)N([H])c3c([H])c([H])c(C([H])([H])N4C([H])([H])C([H])([H])N(C([H])([H])[H])C([H])([H])C4([H])[H])c(C(F)(F)F)c3[H])c([H])c2[H])c([H])c(N([H])C([H])([H])[H])n1


 40 43  0  0  0  0  0  0  0  0999 V2000
    7.4897   50.6178  129.9982 N   0  0  0  0  0  0  0  0  0  0  0  0
    7.3174   51.5269  128.9763 C   0  0  0  0  0  0  0  0  0  0  0  0
    7.7139   51.3626  127.8222 O   0  0  0  0  0  0  0  0  0  0  0  0
    6.6135   52.7823  129.2742 N   0  0  0  0  0  0  0  0  0  0  0  0
    7.1327   50.7858  130.9754 H   0  0  0  0  0  0  0  0  0  0  0  0
    6.2300   53.0553  130.1551 H   0  0  0  0  0  0  0  0  0  0  0  0
    9.5388   47.0062  129.2237 C   0  0  0  0  0  0  0  0  0  0  0  0
    8.6993   47.5552  128.2957 C   0  0  0  0  0  0  0  0  0  0  0  0
    8.0187   48.7571  128.5103 C   0  0  0  0  0  0  0  0  0  0  0  0
    8.1896   49.4036  129.6713 C   0  0  0  0  0  0  0  0  0  0  0  0
    9.0580   48.8589  130.6337 C   0  0  0  0  0  0  0  0  0  0  0  0
    9.7259   47.6771  130.4141 C   0  0  0  0  0  0  0  0  0  0  0  0
   10.5675   47.1191  131.4727 C   0  0  0  0  0  0  0  0  0  0  0  0
   11.7832   46.7299  130.8650 F   0  0  0  0  0  0  0  0  0  0  0  0
   10.9598   48.1096  132.3863 F   0  0  0  0  0  0  0  0  0  0  0  0
   10.1412   45.9842  132.0805 F   0  0  0  0  0  0  0  0  0  0  0  0
   10.3075   45.7291  129.0333 C   0  0  0  0  0  0  0  0  0  0  0  0
    7.9584   41.2822  131.1646 C   0  0  0  0  0  0  0  0  0  0  0  0
    7.9935   42.4843  130.4000 N   0  0  0  0  0  0  0  0  0  0  0  0
    8.1229   43.6680  131.1883 C   0  0  0  0  0  0  0  0  0  0  0  0
    8.3800   44.7853  130.1280 C   0  0  0  0  0  0  0  0  0  0  0  0
    9.7617   44.7123  129.8343 N   0  0  0  0  0  0  0  0  0  0  0  0
   10.1220   43.3863  129.5122 C   0  0  0  0  0  0  0  0  0  0  0  0
    8.8567   42.5264  129.2752 C   0  0  0  0  0  0  0  0  0  0  0  0
    6.5574   53.6300  128.1106 C   0  0  0  0  0  0  0  0  0  0  0  0
    5.5469   53.5842  127.2091 C   0  0  0  0  0  0  0  0  0  0  0  0
    5.6338   54.4064  126.0886 C   0  0  0  0  0  0  0  0  0  0  0  0
    6.6858   55.2432  125.8721 C   0  0  0  0  0  0  0  0  0  0  0  0
    7.7151   55.2706  126.8250 C   0  0  0  0  0  0  0  0  0  0  0  0
    7.6564   54.4820  127.9223 C   0  0  0  0  0  0  0  0  0  0  0  0
    6.8242   56.0837  124.7620 O   0  0  0  0  0  0  0  0  0  0  0  0
    7.5869   55.6846  123.6905 C   0  0  0  0  0  0  0  0  0  0  0  0
    7.7427   54.2981  123.4231 C   0  0  0  0  0  0  0  0  0  0  0  0
    8.5120   53.8840  122.3610 C   0  0  0  0  0  0  0  0  0  0  0  0
    9.0983   54.8343  121.5943 N   0  0  0  0  0  0  0  0  0  0  0  0
    8.9526   56.1479  121.8384 C   0  0  0  0  0  0  0  0  0  0  0  0
    8.2023   56.5345  122.8767 N   0  0  0  0  0  0  0  0  0  0  0  0
    8.7572   52.5028  122.0970 N   0  0  0  0  0  0  0  0  0  0  0  0
    9.1732   51.5359  123.0599 C   0  0  0  0  0  0  0  0  0  0  0  0
    8.6355   52.1682  121.0965 H   0  0  0  0  0  0  0  0  0  0  0  0
 18 19  1  0  0  0
 19 20  1  0  0  0
 20 21  1  0  0  0
 21 22  1  0  0  0
 22 17  1  0  0  0
 17  7  1  0  0  0
  7  8  2  0  0  0
  8  9  1  0  0  0
  9 10  2  0  0  0
 10  1  1  0  0  0
  1  2  1  0  0  0
  2  3  2  0  0  0
  2  4  1  0  0  0
  4 25  1  0  0  0
 25 26  2  0  0  0
 26 27  1  0  0  0
 27 28  2  0  0  0
 28 31  1  0  0  0
 31 32  1  0  0  0
 32 33  2  0  0  0
 33 34  1  0  0  0
 34 38  1  0  0  0
 38 39  1  0  0  0
 34 35  2  0  0  0
 35 36  1  0  0  0
 36 37  2  0  0  0
 28 29  1  0  0  0
 29 30  2  0  0  0
 10 11  1  0  0  0
 11 12  2  0  0  0
 12 13  1  0  0  0
 13 14  1  0  0  0
 13 15  1  0  0  0
 13 16  1  0  0  0
 22 23  1  0  0  0
 23 24  1  0  0  0
 24 19  1  0  0  0
 12  7  1  0  0  0
 30 25  1  0  0  0
 37 32  1  0  0  0
  1  5  1  0  0  0
  4  6  1  0  0  0
 38 40  1  0  0  0
M  END
> <minimizedAffinity>
12.06627

> <CNNscore>
0.3351655304

> <CNNaffinity>
6.7433028221

> <CNN_VS>
2.2601227760

> <CNNaffinity_variance>
0.7114765048

$$$$
[H]c1nc(Oc2c([H])c([H])c(N([H])C(=O)N([H])c3c([H])c([H])c(C([H])([H])N4C([H])([H])C([H])([H])N(C([H])([H])[H])C([H])([H])C4([H])[H])c(C(F)(F)F)c3[H])c([H])c2[H])c([H])c(N([H])C([H])([H])[H])n1


 40 43  0  0  0  0  0  0  0  0999 V2000
    6.7126   51.2987  129.7117 N   0  0  0  0  0  0  0  0  0  0  0  0
    7.1530   52.1772  128.7449 C   0  0  0  0  0  0  0  0  0  0  0  0
    8.1318   51.9863  128.0226 O   0  0  0  0  0  0  0  0  0  0  0  0
    6.4103   53.4311  128.5551 N   0  0  0  0  0  0  0  0  0  0  0  0
    5.8664   51.4888  130.3104 H   0  0  0  0  0  0  0  0  0  0  0  0
    5.5972   53.7234  129.0562 H   0  0  0  0  0  0  0  0  0  0  0  0
    8.8224   47.6553  130.0544 C   0  0  0  0  0  0  0  0  0  0  0  0
    9.4431   48.8539  130.2678 C   0  0  0  0  0  0  0  0  0  0  0  0
    8.7729   50.0775  130.1805 C   0  0  0  0  0  0  0  0  0  0  0  0
    7.4686   50.0849  129.8742 C   0  0  0  0  0  0  0  0  0  0  0  0
    6.8110   48.8604  129.6618 C   0  0  0  0  0  0  0  0  0  0  0  0
    7.4767   47.6606  129.7520 C   0  0  0  0  0  0  0  0  0  0  0  0
    6.7626   46.4180  129.4581 C   0  0  0  0  0  0  0  0  0  0  0  0
    6.2576   45.9370  130.6879 F   0  0  0  0  0  0  0  0  0  0  0  0
    5.6061   46.6624  128.7016 F   0  0  0  0  0  0  0  0  0  0  0  0
    7.4880   45.3743  128.9851 F   0  0  0  0  0  0  0  0  0  0  0  0
    9.4926   46.3142  130.1558 C   0  0  0  0  0  0  0  0  0  0  0  0
   11.3219   44.4013  134.9339 C   0  0  0  0  0  0  0  0  0  0  0  0
   10.6453   44.3179  133.6825 N   0  0  0  0  0  0  0  0  0  0  0  0
    9.4267   45.0608  133.6328 C   0  0  0  0  0  0  0  0  0  0  0  0
    9.0275   45.0050  132.1241 C   0  0  0  0  0  0  0  0  0  0  0  0
    9.7866   46.0210  131.4978 N   0  0  0  0  0  0  0  0  0  0  0  0
   11.1504   45.8888  131.8361 C   0  0  0  0  0  0  0  0  0  0  0  0
   11.4095   44.5165  132.5042 C   0  0  0  0  0  0  0  0  0  0  0  0
    7.0263   54.2459  127.5390 C   0  0  0  0  0  0  0  0  0  0  0  0
    6.8027   55.5771  127.4209 C   0  0  0  0  0  0  0  0  0  0  0  0
    7.4032   56.2484  126.3588 C   0  0  0  0  0  0  0  0  0  0  0  0
    8.1964   55.6200  125.4479 C   0  0  0  0  0  0  0  0  0  0  0  0
    8.4116   54.2420  125.5985 C   0  0  0  0  0  0  0  0  0  0  0  0
    7.8402   53.5651  126.6207 C   0  0  0  0  0  0  0  0  0  0  0  0
    8.8173   56.2458  124.3613 O   0  0  0  0  0  0  0  0  0  0  0  0
    8.4022   55.9676  123.0808 C   0  0  0  0  0  0  0  0  0  0  0  0
    7.3597   55.0249  122.8749 C   0  0  0  0  0  0  0  0  0  0  0  0
    6.9417   54.7285  121.5987 C   0  0  0  0  0  0  0  0  0  0  0  0
    7.5501   55.3638  120.5687 N   0  0  0  0  0  0  0  0  0  0  0  0
    8.5344   56.2598  120.7555 C   0  0  0  0  0  0  0  0  0  0  0  0
    8.9309   56.5358  122.0034 N   0  0  0  0  0  0  0  0  0  0  0  0
    5.9499   53.7355  121.3384 N   0  0  0  0  0  0  0  0  0  0  0  0
    4.6085   53.7564  121.8235 C   0  0  0  0  0  0  0  0  0  0  0  0
    6.2376   52.9018  120.7468 H   0  0  0  0  0  0  0  0  0  0  0  0
 18 19  1  0  0  0
 19 20  1  0  0  0
 20 21  1  0  0  0
 21 22  1  0  0  0
 22 17  1  0  0  0
 17  7  1  0  0  0
  7  8  2  0  0  0
  8  9  1  0  0  0
  9 10  2  0  0  0
 10  1  1  0  0  0
  1  2  1  0  0  0
  2  3  2  0  0  0
  2  4  1  0  0  0
  4 25  1  0  0  0
 25 26  2  0  0  0
 26 27  1  0  0  0
 27 28  2  0  0  0
 28 31  1  0  0  0
 31 32  1  0  0  0
 32 33  2  0  0  0
 33 34  1  0  0  0
 34 38  1  0  0  0
 38 39  1  0  0  0
 34 35  2  0  0  0
 35 36  1  0  0  0
 36 37  2  0  0  0
 28 29  1  0  0  0
 29 30  2  0  0  0
 10 11  1  0  0  0
 11 12  2  0  0  0
 12 13  1  0  0  0
 13 14  1  0  0  0
 13 15  1  0  0  0
 13 16  1  0  0  0
 22 23  1  0  0  0
 23 24  1  0  0  0
 24 19  1  0  0  0
 12  7  1  0  0  0
 30 25  1  0  0  0
 37 32  1  0  0  0
  1  5  1  0  0  0
  4  6  1  0  0  0
 38 40  1  0  0  0
M  END
> <minimizedAffinity>
0.78421

> <CNNscore>
0.3158077598

> <CNNaffinity>
6.9162850380

> <CNN_VS>
2.1842164993

> <CNNaffinity_variance>
0.2200713605

$$$$
[H]c1c([H])c(N([H])C(=O)c2nc3c([H])c([H])c([H])c([H])c3nc2Oc2c([H])c([H])c(OC([H])([H])[H])c([H])c2Cl)c([H])c(S(=O)(=O)N([H])[H])c1[H]


 36 39  0  0  0  0  0  0  0  0999 V2000
    9.6593   44.0148  132.9604 C   0  0  0  0  0  0  0  0  0  0  0  0
   10.4873   42.9424  133.0737 N   0  0  0  0  0  0  0  0  0  0  0  0
   10.5430   41.9291  132.2259 C   0  0  0  0  0  0  0  0  0  0  0  0
   11.4149   40.8576  132.3996 C   0  0  0  0  0  0  0  0  0  0  0  0
   11.4271   39.8371  131.4893 C   0  0  0  0  0  0  0  0  0  0  0  0
   10.5667   39.8995  130.4149 C   0  0  0  0  0  0  0  0  0  0  0  0
    9.6911   40.9447  130.2123 C   0  0  0  0  0  0  0  0  0  0  0  0
    9.6930   41.9660  131.1418 C   0  0  0  0  0  0  0  0  0  0  0  0
    8.8531   42.9971  130.9733 N   0  0  0  0  0  0  0  0  0  0  0  0
    8.8300   44.0249  131.8755 C   0  0  0  0  0  0  0  0  0  0  0  0
    7.9194   45.1609  131.6010 C   0  0  0  0  0  0  0  0  0  0  0  0
    7.1684   45.5111  132.5280 O   0  0  0  0  0  0  0  0  0  0  0  0
    7.9310   45.7891  130.3399 N   0  0  0  0  0  0  0  0  0  0  0  0
    8.6368   45.3710  129.6450 H   0  0  0  0  0  0  0  0  0  0  0  0
    7.1399   46.8764  129.9057 C   0  0  0  0  0  0  0  0  0  0  0  0
    5.9246   46.6021  129.2679 C   0  0  0  0  0  0  0  0  0  0  0  0
    5.0761   47.5710  128.8010 C   0  0  0  0  0  0  0  0  0  0  0  0
    5.4304   48.9029  128.9637 C   0  0  0  0  0  0  0  0  0  0  0  0
    6.6092   49.2264  129.5811 C   0  0  0  0  0  0  0  0  0  0  0  0
    7.4454   48.2044  130.0423 C   0  0  0  0  0  0  0  0  0  0  0  0
    7.0403   50.9051  129.7780 S   0  0  0  0  0  0  0  0  0  0  0  0
    7.0138   51.6998  128.2530 N   0  0  0  0  0  0  0  0  0  0  0  0
    8.4247   50.9912  130.3576 O   0  0  0  0  0  0  0  0  0  0  0  0
    6.0394   51.5699  130.6807 O   0  0  0  0  0  0  0  0  0  0  0  0
    7.8909   52.2515  128.1317 H   0  0  0  0  0  0  0  0  0  0  0  0
    6.9911   51.0282  127.4474 H   0  0  0  0  0  0  0  0  0  0  0  0
    9.6780   45.0251  133.9065 O   0  0  0  0  0  0  0  0  0  0  0  0
    9.9590   49.0692  132.8838 C   0  0  0  0  0  0  0  0  0  0  0  0
    8.9849   48.6007  133.7417 C   0  0  0  0  0  0  0  0  0  0  0  0
    8.8764   47.2705  134.0908 C   0  0  0  0  0  0  0  0  0  0  0  0
    9.7823   46.3808  133.5557 C   0  0  0  0  0  0  0  0  0  0  0  0
   10.7701   46.8093  132.6949 C   0  0  0  0  0  0  0  0  0  0  0  0
   11.8920   45.6312  132.0473 Cl  0  0  0  0  0  0  0  0  0  0  0  0
   10.8485   48.1517  132.3671 C   0  0  0  0  0  0  0  0  0  0  0  0
    9.6873   51.4287  133.4617 C   0  0  0  0  0  0  0  0  0  0  0  0
   10.0359   50.4219  132.5551 O   0  0  0  0  0  0  0  0  0  0  0  0
 35 36  1  0  0  0
 36 28  1  0  0  0
 28 29  2  0  0  0
 29 30  1  0  0  0
 30 31  2  0  0  0
 31 27  1  0  0  0
 27  1  1  0  0  0
  1  2  2  0  0  0
  2  3  1  0  0  0
  3  4  2  0  0  0
  4  5  1  0  0  0
  5  6  2  0  0  0
  6  7  1  0  0  0
  7  8  2  0  0  0
  8  9  1  0  0  0
  9 10  2  0  0  0
 10 11  1  0  0  0
 11 12  2  0  0  0
 11 13  1  0  0  0
 13 15  1  0  0  0
 15 16  2  0  0  0
 16 17  1  0  0  0
 17 18  2  0  0  0
 18 19  1  0  0  0
 19 20  2  0  0  0
 19 21  1  0  0  0
 21 22  1  0  0  0
 21 23  2  0  0  0
 21 24  2  0  0  0
 31 32  1  0  0  0
 32 33  1  0  0  0
 32 34  2  0  0  0
 34 28  1  0  0  0
 10  1  1  0  0  0
 20 15  1  0  0  0
  8  3  1  0  0  0
 13 14  1  0  0  0
 22 25  1  0  0  0
 22 26  1  0  0  0
M  END
> <minimizedAffinity>
7.38814

> <CNNscore>
0.5695236325

> <CNNaffinity>
7.8592557907

> <CNN_VS>
4.4760317802

> <CNNaffinity_variance>
0.9215980768

$$$$
[H]c1c([H])c(N([H])C(=O)c2nc3c([H])c([H])c([H])c([H])c3nc2Oc2c([H])c([H])c(OC([H])([H])[H])c([H])c2Cl)c([H])c(S(=O)(=O)N([H])[H])c1[H]


 36 39  0  0  0  0  0  0  0  0999 V2000
    9.7546   43.1593  132.6104 C   0  0  0  0  0  0  0  0  0  0  0  0
    9.6423   41.9894  133.2939 N   0  0  0  0  0  0  0  0  0  0  0  0
    8.5233   41.5152  133.8151 C   0  0  0  0  0  0  0  0  0  0  0  0
    8.4749   40.3076  134.5063 C   0  0  0  0  0  0  0  0  0  0  0  0
    7.2880   39.8682  135.0243 C   0  0  0  0  0  0  0  0  0  0  0  0
    6.1620   40.6419  134.8452 C   0  0  0  0  0  0  0  0  0  0  0  0
    6.1740   41.8417  134.1665 C   0  0  0  0  0  0  0  0  0  0  0  0
    7.3815   42.2691  133.6506 C   0  0  0  0  0  0  0  0  0  0  0  0
    7.4266   43.4319  132.9852 N   0  0  0  0  0  0  0  0  0  0  0  0
    8.6067   43.8838  132.4616 C   0  0  0  0  0  0  0  0  0  0  0  0
    8.5773   45.1476  131.6890 C   0  0  0  0  0  0  0  0  0  0  0  0
    8.4374   45.0463  130.4577 O   0  0  0  0  0  0  0  0  0  0  0  0
    8.7049   46.3851  132.3504 N   0  0  0  0  0  0  0  0  0  0  0  0
    8.8182   46.3061  133.4166 H   0  0  0  0  0  0  0  0  0  0  0  0
    8.6984   47.6778  131.7798 C   0  0  0  0  0  0  0  0  0  0  0  0
    9.6428   48.6080  132.2291 C   0  0  0  0  0  0  0  0  0  0  0  0
    9.7314   49.8902  131.7546 C   0  0  0  0  0  0  0  0  0  0  0  0
    8.8404   50.3014  130.7732 C   0  0  0  0  0  0  0  0  0  0  0  0
    7.8962   49.4305  130.2986 C   0  0  0  0  0  0  0  0  0  0  0  0
    7.8418   48.1305  130.8119 C   0  0  0  0  0  0  0  0  0  0  0  0
    6.7835   49.9624  129.0651 S   0  0  0  0  0  0  0  0  0  0  0  0
    6.8375   48.8872  127.7238 N   0  0  0  0  0  0  0  0  0  0  0  0
    7.1766   51.3407  128.6114 O   0  0  0  0  0  0  0  0  0  0  0  0
    5.3882   49.9600  129.6235 O   0  0  0  0  0  0  0  0  0  0  0  0
    6.9279   49.4352  126.8407 H   0  0  0  0  0  0  0  0  0  0  0  0
    7.6729   48.2531  127.7473 H   0  0  0  0  0  0  0  0  0  0  0  0
   10.9768   43.5677  132.1047 O   0  0  0  0  0  0  0  0  0  0  0  0
   13.4980   46.1521  134.2126 C   0  0  0  0  0  0  0  0  0  0  0  0
   13.0531   44.9643  134.7562 C   0  0  0  0  0  0  0  0  0  0  0  0
   12.2212   44.0990  134.0763 C   0  0  0  0  0  0  0  0  0  0  0  0
   11.8236   44.4436  132.8028 C   0  0  0  0  0  0  0  0  0  0  0  0
   12.2462   45.6215  132.2246 C   0  0  0  0  0  0  0  0  0  0  0  0
   11.7071   46.0046  130.6034 Cl  0  0  0  0  0  0  0  0  0  0  0  0
   13.0807   46.4653  132.9368 C   0  0  0  0  0  0  0  0  0  0  0  0
   13.8418   48.0017  135.7734 C   0  0  0  0  0  0  0  0  0  0  0  0
   14.3385   47.0005  134.9320 O   0  0  0  0  0  0  0  0  0  0  0  0
 35 36  1  0  0  0
 36 28  1  0  0  0
 28 29  2  0  0  0
 29 30  1  0  0  0
 30 31  2  0  0  0
 31 27  1  0  0  0
 27  1  1  0  0  0
  1  2  2  0  0  0
  2  3  1  0  0  0
  3  4  2  0  0  0
  4  5  1  0  0  0
  5  6  2  0  0  0
  6  7  1  0  0  0
  7  8  2  0  0  0
  8  9  1  0  0  0
  9 10  2  0  0  0
 10 11  1  0  0  0
 11 12  2  0  0  0
 11 13  1  0  0  0
 13 15  1  0  0  0
 15 16  2  0  0  0
 16 17  1  0  0  0
 17 18  2  0  0  0
 18 19  1  0  0  0
 19 20  2  0  0  0
 19 21  1  0  0  0
 21 22  1  0  0  0
 21 23  2  0  0  0
 21 24  2  0  0  0
 31 32  1  0  0  0
 32 33  1  0  0  0
 32 34  2  0  0  0
 34 28  1  0  0  0
 10  1  1  0  0  0
 20 15  1  0  0  0
  8  3  1  0  0  0
 13 14  1  0  0  0
 22 25  1  0  0  0
 22 26  1  0  0  0
M  END
> <minimizedAffinity>
19.05774

> <CNNscore>
0.5119686723

> <CNNaffinity>
7.7173247337

> <CNN_VS>
3.9510285854

> <CNNaffinity_variance>
0.9903804660

$$$$
[H]c1c([H])c(N([H])C(=O)c2nc3c([H])c([H])c([H])c([H])c3nc2Oc2c([H])c([H])c(OC([H])([H])[H])c([H])c2Cl)c([H])c(S(=O)(=O)N([H])[H])c1[H]


 36 39  0  0  0  0  0  0  0  0999 V2000
   10.9654   43.9433  131.0946 C   0  0  0  0  0  0  0  0  0  0  0  0
   12.2487   43.4987  131.1585 N   0  0  0  0  0  0  0  0  0  0  0  0
   13.1764   43.7129  130.2408 C   0  0  0  0  0  0  0  0  0  0  0  0
   14.4757   43.2284  130.3657 C   0  0  0  0  0  0  0  0  0  0  0  0
   15.3926   43.4812  129.3831 C   0  0  0  0  0  0  0  0  0  0  0  0
   14.9997   44.2162  128.2858 C   0  0  0  0  0  0  0  0  0  0  0  0
   13.7225   44.7110  128.1301 C   0  0  0  0  0  0  0  0  0  0  0  0
   12.8105   44.4456  129.1325 C   0  0  0  0  0  0  0  0  0  0  0  0
   11.5599   44.9128  129.0111 N   0  0  0  0  0  0  0  0  0  0  0  0
   10.6324   44.6678  129.9860 C   0  0  0  0  0  0  0  0  0  0  0  0
    9.2848   45.2601  129.8179 C   0  0  0  0  0  0  0  0  0  0  0  0
    8.3303   44.4662  129.7504 O   0  0  0  0  0  0  0  0  0  0  0  0
    9.1304   46.6585  129.7416 N   0  0  0  0  0  0  0  0  0  0  0  0
   10.0508   47.2089  129.8163 H   0  0  0  0  0  0  0  0  0  0  0  0
    7.9323   47.3911  129.5840 C   0  0  0  0  0  0  0  0  0  0  0  0
    6.7822   46.7056  129.1761 C   0  0  0  0  0  0  0  0  0  0  0  0
    5.5663   47.3077  128.9861 C   0  0  0  0  0  0  0  0  0  0  0  0
    5.4563   48.6733  129.2073 C   0  0  0  0  0  0  0  0  0  0  0  0
    6.5515   49.3916  129.6075 C   0  0  0  0  0  0  0  0  0  0  0  0
    7.7735   48.7358  129.7890 C   0  0  0  0  0  0  0  0  0  0  0  0
    6.3970   51.1073  129.8814 S   0  0  0  0  0  0  0  0  0  0  0  0
    6.4898   51.9504  128.3852 N   0  0  0  0  0  0  0  0  0  0  0  0
    7.5145   51.5635  130.7774 O   0  0  0  0  0  0  0  0  0  0  0  0
    5.0598   51.3896  130.5067 O   0  0  0  0  0  0  0  0  0  0  0  0
    7.1622   52.7433  128.4726 H   0  0  0  0  0  0  0  0  0  0  0  0
    6.8603   51.3529  127.6066 H   0  0  0  0  0  0  0  0  0  0  0  0
   10.0688   43.6622  132.1111 O   0  0  0  0  0  0  0  0  0  0  0  0
    9.0541   46.4618  135.0457 C   0  0  0  0  0  0  0  0  0  0  0  0
    8.2020   46.1572  134.0038 C   0  0  0  0  0  0  0  0  0  0  0  0
    8.5192   45.2367  133.0266 C   0  0  0  0  0  0  0  0  0  0  0  0
    9.7391   44.6005  133.1024 C   0  0  0  0  0  0  0  0  0  0  0  0
   10.6182   44.8771  134.1275 C   0  0  0  0  0  0  0  0  0  0  0  0
   12.1536   44.0365  134.1701 Cl  0  0  0  0  0  0  0  0  0  0  0  0
   10.2660   45.8067  135.0905 C   0  0  0  0  0  0  0  0  0  0  0  0
    7.8191   48.4531  135.7420 C   0  0  0  0  0  0  0  0  0  0  0  0
    8.6971   47.3986  136.0146 O   0  0  0  0  0  0  0  0  0  0  0  0
 35 36  1  0  0  0
 36 28  1  0  0  0
 28 29  2  0  0  0
 29 30  1  0  0  0
 30 31  2  0  0  0
 31 27  1  0  0  0
 27  1  1  0  0  0
  1  2  2  0  0  0
  2  3  1  0  0  0
  3  4  2  0  0  0
  4  5  1  0  0  0
  5  6  2  0  0  0
  6  7  1  0  0  0
  7  8  2  0  0  0
  8  9  1  0  0  0
  9 10  2  0  0  0
 10 11  1  0  0  0
 11 12  2  0  0  0
 11 13  1  0  0  0
 13 15  1  0  0  0
 15 16  2  0  0  0
 16 17  1  0  0  0
 17 18  2  0  0  0
 18 19  1  0  0  0
 19 20  2  0  0  0
 19 21  1  0  0  0
 21 22  1  0  0  0
 21 23  2  0  0  0
 21 24  2  0  0  0
 31 32  1  0  0  0
 32 33  1  0  0  0
 32 34  2  0  0  0
 34 28  1  0  0  0
 10  1  1  0  0  0
 20 15  1  0  0  0
  8  3  1  0  0  0
 13 14  1  0  0  0
 22 25  1  0  0  0
 22 26  1  0  0  0
M  END
> <minimizedAffinity>
7.27699

> <CNNscore>
0.5016330481

> <CNNaffinity>
7.9527449608

> <CNN_VS>
3.9893596172

> <CNNaffinity_variance>
0.7409219742

$$$$
[H]c1c([H])c(N([H])C(=O)c2nc3c([H])c([H])c([H])c([H])c3nc2Oc2c([H])c([H])c(OC([H])([H])[H])c([H])c2Cl)c([H])c(S(=O)(=O)N([H])[H])c1[H]


 36 39  0  0  0  0  0  0  0  0999 V2000
    7.6198   47.1535  129.1856 C   0  0  0  0  0  0  0  0  0  0  0  0
    6.4692   47.5536  128.5818 N   0  0  0  0  0  0  0  0  0  0  0  0
    5.7698   48.6272  128.9091 C   0  0  0  0  0  0  0  0  0  0  0  0
    4.5959   48.9826  128.2502 C   0  0  0  0  0  0  0  0  0  0  0  0
    3.9144   50.1045  128.6337 C   0  0  0  0  0  0  0  0  0  0  0  0
    4.4149   50.8590  129.6724 C   0  0  0  0  0  0  0  0  0  0  0  0
    5.5735   50.5365  130.3461 C   0  0  0  0  0  0  0  0  0  0  0  0
    6.2479   49.4002  129.9449 C   0  0  0  0  0  0  0  0  0  0  0  0
    7.3781   49.0592  130.5800 N   0  0  0  0  0  0  0  0  0  0  0  0
    8.0702   47.9399  130.2071 C   0  0  0  0  0  0  0  0  0  0  0  0
    9.3410   47.6504  130.9115 C   0  0  0  0  0  0  0  0  0  0  0  0
   10.3881   47.7979  130.2575 O   0  0  0  0  0  0  0  0  0  0  0  0
    9.3256   47.2303  132.2563 N   0  0  0  0  0  0  0  0  0  0  0  0
    8.3419   47.1511  132.6827 H   0  0  0  0  0  0  0  0  0  0  0  0
   10.4304   46.9137  133.0784 C   0  0  0  0  0  0  0  0  0  0  0  0
   11.0772   47.9552  133.7537 C   0  0  0  0  0  0  0  0  0  0  0  0
   12.1591   47.7723  134.5740 C   0  0  0  0  0  0  0  0  0  0  0  0
   12.6505   46.4868  134.7534 C   0  0  0  0  0  0  0  0  0  0  0  0
   12.0545   45.4317  134.1155 C   0  0  0  0  0  0  0  0  0  0  0  0
   10.9520   45.6647  133.2869 C   0  0  0  0  0  0  0  0  0  0  0  0
   12.6839   43.8222  134.3512 S   0  0  0  0  0  0  0  0  0  0  0  0
   12.7725   43.0007  132.8428 N   0  0  0  0  0  0  0  0  0  0  0  0
   11.7675   43.0673  135.2733 O   0  0  0  0  0  0  0  0  0  0  0  0
   14.0687   43.9124  134.9281 O   0  0  0  0  0  0  0  0  0  0  0  0
   12.3472   42.0526  132.9362 H   0  0  0  0  0  0  0  0  0  0  0  0
   12.2245   43.4809  132.0880 H   0  0  0  0  0  0  0  0  0  0  0  0
    8.2765   46.0091  128.7669 O   0  0  0  0  0  0  0  0  0  0  0  0
    9.5424   43.0743  131.4621 C   0  0  0  0  0  0  0  0  0  0  0  0
    8.3288   43.7164  131.6011 C   0  0  0  0  0  0  0  0  0  0  0  0
    7.8942   44.6868  130.7224 C   0  0  0  0  0  0  0  0  0  0  0  0
    8.7123   45.0221  129.6655 C   0  0  0  0  0  0  0  0  0  0  0  0
    9.9321   44.4038  129.4919 C   0  0  0  0  0  0  0  0  0  0  0  0
   10.9276   44.8726  128.1299 Cl  0  0  0  0  0  0  0  0  0  0  0  0
   10.3354   43.4344  130.3937 C   0  0  0  0  0  0  0  0  0  0  0  0
    9.4152   42.0196  133.6636 C   0  0  0  0  0  0  0  0  0  0  0  0
    9.9465   42.0982  132.3717 O   0  0  0  0  0  0  0  0  0  0  0  0
 35 36  1  0  0  0
 36 28  1  0  0  0
 28 29  2  0  0  0
 29 30  1  0  0  0
 30 31  2  0  0  0
 31 27  1  0  0  0
 27  1  1  0  0  0
  1  2  2  0  0  0
  2  3  1  0  0  0
  3  4  2  0  0  0
  4  5  1  0  0  0
  5  6  2  0  0  0
  6  7  1  0  0  0
  7  8  2  0  0  0
  8  9  1  0  0  0
  9 10  2  0  0  0
 10 11  1  0  0  0
 11 12  2  0  0  0
 11 13  1  0  0  0
 13 15  1  0  0  0
 15 16  2  0  0  0
 16 17  1  0  0  0
 17 18  2  0  0  0
 18 19  1  0  0  0
 19 20  2  0  0  0
 19 21  1  0  0  0
 21 22  1  0  0  0
 21 23  2  0  0  0
 21 24  2  0  0  0
 31 32  1  0  0  0
 32 33  1  0  0  0
 32 34  2  0  0  0
 34 28  1  0  0  0
 10  1  1  0  0  0
 20 15  1  0  0  0
  8  3  1  0  0  0
 13 14  1  0  0  0
 22 25  1  0  0  0
 22 26  1  0  0  0
M  END
> <minimizedAffinity>
8.11921

> <CNNscore>
0.4647601247

> <CNNaffinity>
7.8167700768

> <CNN_VS>
3.6329231262

> <CNNaffinity_variance>
0.4045456052

$$$$
[H]c1c([H])c(N([H])C(=O)c2nc3c([H])c([H])c([H])c([H])c3nc2Oc2c([H])c([H])c(OC([H])([H])[H])c([H])c2Cl)c([H])c(S(=O)(=O)N([H])[H])c1[H]


 36 39  0  0  0  0  0  0  0  0999 V2000
    7.4199   46.9111  130.5959 C   0  0  0  0  0  0  0  0  0  0  0  0
    6.2816   47.5523  130.2197 N   0  0  0  0  0  0  0  0  0  0  0  0
    6.2250   48.7749  129.7189 C   0  0  0  0  0  0  0  0  0  0  0  0
    5.0240   49.3768  129.3530 C   0  0  0  0  0  0  0  0  0  0  0  0
    5.0278   50.6448  128.8409 C   0  0  0  0  0  0  0  0  0  0  0  0
    6.2333   51.2971  128.7002 C   0  0  0  0  0  0  0  0  0  0  0  0
    7.4401   50.7314  129.0519 C   0  0  0  0  0  0  0  0  0  0  0  0
    7.4165   49.4504  129.5672 C   0  0  0  0  0  0  0  0  0  0  0  0
    8.5736   48.8720  129.9189 N   0  0  0  0  0  0  0  0  0  0  0  0
    8.5851   47.6043  130.4324 C   0  0  0  0  0  0  0  0  0  0  0  0
    9.9013   47.0018  130.7478 C   0  0  0  0  0  0  0  0  0  0  0  0
   10.6750   47.6830  131.4430 O   0  0  0  0  0  0  0  0  0  0  0  0
   10.2263   45.7182  130.2663 N   0  0  0  0  0  0  0  0  0  0  0  0
    9.4518   45.2576  129.6800 H   0  0  0  0  0  0  0  0  0  0  0  0
   11.4231   44.9943  130.4671 C   0  0  0  0  0  0  0  0  0  0  0  0
   11.6198   44.3632  131.7009 C   0  0  0  0  0  0  0  0  0  0  0  0
   12.7392   43.6377  132.0130 C   0  0  0  0  0  0  0  0  0  0  0  0
   13.7412   43.5143  131.0608 C   0  0  0  0  0  0  0  0  0  0  0  0
   13.5990   44.1124  129.8371 C   0  0  0  0  0  0  0  0  0  0  0  0
   12.4392   44.8440  129.5614 C   0  0  0  0  0  0  0  0  0  0  0  0
   14.8673   43.9479  128.6510 S   0  0  0  0  0  0  0  0  0  0  0  0
   14.1940   43.5128  127.1294 N   0  0  0  0  0  0  0  0  0  0  0  0
   15.8195   42.8735  129.0969 O   0  0  0  0  0  0  0  0  0  0  0  0
   15.5772   45.2640  128.5005 O   0  0  0  0  0  0  0  0  0  0  0  0
   14.7254   42.7089  126.7297 H   0  0  0  0  0  0  0  0  0  0  0  0
   13.2013   43.1825  127.2061 H   0  0  0  0  0  0  0  0  0  0  0  0
    7.3704   45.6277  131.1122 O   0  0  0  0  0  0  0  0  0  0  0  0
    9.5464   44.5271  134.5082 C   0  0  0  0  0  0  0  0  0  0  0  0
    9.0416   45.8015  134.3478 C   0  0  0  0  0  0  0  0  0  0  0  0
    8.3216   46.1831  133.2347 C   0  0  0  0  0  0  0  0  0  0  0  0
    8.1026   45.2464  132.2481 C   0  0  0  0  0  0  0  0  0  0  0  0
    8.5902   43.9629  132.3709 C   0  0  0  0  0  0  0  0  0  0  0  0
    8.2795   42.8173  131.0838 Cl  0  0  0  0  0  0  0  0  0  0  0  0
    9.3085   43.6158  133.5019 C   0  0  0  0  0  0  0  0  0  0  0  0
   11.5286   43.5741  135.5750 C   0  0  0  0  0  0  0  0  0  0  0  0
   10.2696   44.1798  135.6484 O   0  0  0  0  0  0  0  0  0  0  0  0
 35 36  1  0  0  0
 36 28  1  0  0  0
 28 29  2  0  0  0
 29 30  1  0  0  0
 30 31  2  0  0  0
 31 27  1  0  0  0
 27  1  1  0  0  0
  1  2  2  0  0  0
  2  3  1  0  0  0
  3  4  2  0  0  0
  4  5  1  0  0  0
  5  6  2  0  0  0
  6  7  1  0  0  0
  7  8  2  0  0  0
  8  9  1  0  0  0
  9 10  2  0  0  0
 10 11  1  0  0  0
 11 12  2  0  0  0
 11 13  1  0  0  0
 13 15  1  0  0  0
 15 16  2  0  0  0
 16 17  1  0  0  0
 17 18  2  0  0  0
 18 19  1  0  0  0
 19 20  2  0  0  0
 19 21  1  0  0  0
 21 22  1  0  0  0
 21 23  2  0  0  0
 21 24  2  0  0  0
 31 32  1  0  0  0
 32 33  1  0  0  0
 32 34  2  0  0  0
 34 28  1  0  0  0
 10  1  1  0  0  0
 20 15  1  0  0  0
  8  3  1  0  0  0
 13 14  1  0  0  0
 22 25  1  0  0  0
 22 26  1  0  0  0
M  END
> <minimizedAffinity>
10.47989

> <CNNscore>
0.4504346550

> <CNNaffinity>
7.8982176781

> <CNN_VS>
3.5576310158

> <CNNaffinity_variance>
1.3164846897

$$$$
[H]c1c([H])c(N([H])C(=O)c2nc3c([H])c([H])c([H])c([H])c3nc2Oc2c([H])c([H])c(OC([H])([H])[H])c([H])c2Cl)c([H])c(S(=O)(=O)N([H])[H])c1[H]


 36 39  0  0  0  0  0  0  0  0999 V2000
    7.5835   47.7268  130.8715 C   0  0  0  0  0  0  0  0  0  0  0  0
    6.9315   48.8799  131.1774 N   0  0  0  0  0  0  0  0  0  0  0  0
    6.8334   49.9338  130.3846 C   0  0  0  0  0  0  0  0  0  0  0  0
    6.1505   51.0880  130.7585 C   0  0  0  0  0  0  0  0  0  0  0  0
    6.0833   52.1472  129.8960 C   0  0  0  0  0  0  0  0  0  0  0  0
    6.7001   52.0402  128.6686 C   0  0  0  0  0  0  0  0  0  0  0  0
    7.3842   50.9130  128.2664 C   0  0  0  0  0  0  0  0  0  0  0  0
    7.4414   49.8537  129.1505 C   0  0  0  0  0  0  0  0  0  0  0  0
    8.0991   48.7430  128.7892 N   0  0  0  0  0  0  0  0  0  0  0  0
    8.1745   47.6758  129.6415 C   0  0  0  0  0  0  0  0  0  0  0  0
    8.8672   46.4581  129.1595 C   0  0  0  0  0  0  0  0  0  0  0  0
    8.1489   45.4879  128.8617 O   0  0  0  0  0  0  0  0  0  0  0  0
   10.2722   46.4364  129.0567 N   0  0  0  0  0  0  0  0  0  0  0  0
   10.7505   47.3531  129.3512 H   0  0  0  0  0  0  0  0  0  0  0  0
   11.0932   45.3723  128.6203 C   0  0  0  0  0  0  0  0  0  0  0  0
   10.5477   44.4277  127.7433 C   0  0  0  0  0  0  0  0  0  0  0  0
   11.2434   43.3528  127.2559 C   0  0  0  0  0  0  0  0  0  0  0  0
   12.5640   43.1803  127.6463 C   0  0  0  0  0  0  0  0  0  0  0  0
   13.1463   44.0760  128.5032 C   0  0  0  0  0  0  0  0  0  0  0  0
   12.3983   45.1590  128.9763 C   0  0  0  0  0  0  0  0  0  0  0  0
   14.8069   43.8453  128.9844 S   0  0  0  0  0  0  0  0  0  0  0  0
   15.5944   45.3682  129.1215 N   0  0  0  0  0  0  0  0  0  0  0  0
   15.5083   43.0167  127.9445 O   0  0  0  0  0  0  0  0  0  0  0  0
   14.8435   43.1662  130.3246 O   0  0  0  0  0  0  0  0  0  0  0  0
   16.5070   45.3358  128.6171 H   0  0  0  0  0  0  0  0  0  0  0  0
   15.0525   46.1456  128.6714 H   0  0  0  0  0  0  0  0  0  0  0  0
    7.6290   46.6795  131.7756 O   0  0  0  0  0  0  0  0  0  0  0  0
   11.2437   45.1446  133.2101 C   0  0  0  0  0  0  0  0  0  0  0  0
   10.9475   46.4910  133.2737 C   0  0  0  0  0  0  0  0  0  0  0  0
    9.7607   47.0158  132.8058 C   0  0  0  0  0  0  0  0  0  0  0  0
    8.8394   46.1524  132.2540 C   0  0  0  0  0  0  0  0  0  0  0  0
    9.0977   44.8008  132.1722 C   0  0  0  0  0  0  0  0  0  0  0  0
    7.8880   43.7539  131.4605 Cl  0  0  0  0  0  0  0  0  0  0  0  0
   10.2995   44.3098  132.6520 C   0  0  0  0  0  0  0  0  0  0  0  0
   13.2970   45.4178  134.5080 C   0  0  0  0  0  0  0  0  0  0  0  0
   12.4549   44.6524  133.6941 O   0  0  0  0  0  0  0  0  0  0  0  0
 35 36  1  0  0  0
 36 28  1  0  0  0
 28 29  2  0  0  0
 29 30  1  0  0  0
 30 31  2  0  0  0
 31 27  1  0  0  0
 27  1  1  0  0  0
  1  2  2  0  0  0
  2  3  1  0  0  0
  3  4  2  0  0  0
  4  5  1  0  0  0
  5  6  2  0  0  0
  6  7  1  0  0  0
  7  8  2  0  0  0
  8  9  1  0  0  0
  9 10  2  0  0  0
 10 11  1  0  0  0
 11 12  2  0  0  0
 11 13  1  0  0  0
 13 15  1  0  0  0
 15 16  2  0  0  0
 16 17  1  0  0  0
 17 18  2  0  0  0
 18 19  1  0  0  0
 19 20  2  0  0  0
 19 21  1  0  0  0
 21 22  1  0  0  0
 21 23  2  0  0  0
 21 24  2  0  0  0
 31 32  1  0  0  0
 32 33  1  0  0  0
 32 34  2  0  0  0
 34 28  1  0  0  0
 10  1  1  0  0  0
 20 15  1  0  0  0
  8  3  1  0  0  0
 13 14  1  0  0  0
 22 25  1  0  0  0
 22 26  1  0  0  0
M  END
> <minimizedAffinity>
16.47787

> <CNNscore>
0.4486762285

> <CNNaffinity>
7.2981481552

> <CNN_VS>
3.2745056152

> <CNNaffinity_variance>
0.7406908274

$$$$
[H]c1c([H])c(N([H])C(=O)c2nc3c([H])c([H])c([H])c([H])c3nc2Oc2c([H])c([H])c(OC([H])([H])[H])c([H])c2Cl)c([H])c(S(=O)(=O)N([H])[H])c1[H]


 36 39  0  0  0  0  0  0  0  0999 V2000
   11.7900   44.7573  131.2660 C   0  0  0  0  0  0  0  0  0  0  0  0
   12.9923   44.1248  131.2138 N   0  0  0  0  0  0  0  0  0  0  0  0
   13.7435   44.0030  130.1324 C   0  0  0  0  0  0  0  0  0  0  0  0
   14.9681   43.3407  130.1449 C   0  0  0  0  0  0  0  0  0  0  0  0
   15.7010   43.2457  128.9943 C   0  0  0  0  0  0  0  0  0  0  0  0
   15.2009   43.8144  127.8433 C   0  0  0  0  0  0  0  0  0  0  0  0
   13.9930   44.4771  127.7952 C   0  0  0  0  0  0  0  0  0  0  0  0
   13.2670   44.5628  128.9668 C   0  0  0  0  0  0  0  0  0  0  0  0
   12.0882   45.2009  128.9533 N   0  0  0  0  0  0  0  0  0  0  0  0
   11.3444   45.3038  130.0966 C   0  0  0  0  0  0  0  0  0  0  0  0
   10.0784   46.0703  130.0269 C   0  0  0  0  0  0  0  0  0  0  0  0
    9.0587   45.4361  129.7044 O   0  0  0  0  0  0  0  0  0  0  0  0
   10.0682   47.4488  130.3180 N   0  0  0  0  0  0  0  0  0  0  0  0
   11.0297   47.8515  130.5810 H   0  0  0  0  0  0  0  0  0  0  0  0
    8.9636   48.3298  130.3030 C   0  0  0  0  0  0  0  0  0  0  0  0
    9.1200   49.6024  130.8644 C   0  0  0  0  0  0  0  0  0  0  0  0
    8.1219   50.5397  130.9116 C   0  0  0  0  0  0  0  0  0  0  0  0
    6.8818   50.2213  130.3760 C   0  0  0  0  0  0  0  0  0  0  0  0
    6.6754   48.9894  129.8147 C   0  0  0  0  0  0  0  0  0  0  0  0
    7.7229   48.0629  129.7882 C   0  0  0  0  0  0  0  0  0  0  0  0
    5.1111   48.6044  129.1457 S   0  0  0  0  0  0  0  0  0  0  0  0
    5.2608   48.2550  127.4684 N   0  0  0  0  0  0  0  0  0  0  0  0
    4.1967   49.7839  129.3263 O   0  0  0  0  0  0  0  0  0  0  0  0
    4.5620   47.3897  129.8396 O   0  0  0  0  0  0  0  0  0  0  0  0
    4.5393   48.7874  126.9352 H   0  0  0  0  0  0  0  0  0  0  0  0
    6.1835   48.5593  127.0727 H   0  0  0  0  0  0  0  0  0  0  0  0
   11.0796   44.8281  132.4520 O   0  0  0  0  0  0  0  0  0  0  0  0
    7.7802   42.3733  133.2054 C   0  0  0  0  0  0  0  0  0  0  0  0
    8.9381   41.8833  132.6364 C   0  0  0  0  0  0  0  0  0  0  0  0
   10.0365   42.6774  132.3804 C   0  0  0  0  0  0  0  0  0  0  0  0
    9.9652   44.0135  132.7097 C   0  0  0  0  0  0  0  0  0  0  0  0
    8.8264   44.5414  133.2796 C   0  0  0  0  0  0  0  0  0  0  0  0
    8.7959   46.2466  133.6759 Cl  0  0  0  0  0  0  0  0  0  0  0  0
    7.7435   43.7143  133.5220 C   0  0  0  0  0  0  0  0  0  0  0  0
    6.3697   41.0894  134.7342 C   0  0  0  0  0  0  0  0  0  0  0  0
    6.6907   41.5382  133.4486 O   0  0  0  0  0  0  0  0  0  0  0  0
 35 36  1  0  0  0
 36 28  1  0  0  0
 28 29  2  0  0  0
 29 30  1  0  0  0
 30 31  2  0  0  0
 31 27  1  0  0  0
 27  1  1  0  0  0
  1  2  2  0  0  0
  2  3  1  0  0  0
  3  4  2  0  0  0
  4  5  1  0  0  0
  5  6  2  0  0  0
  6  7  1  0  0  0
  7  8  2  0  0  0
  8  9  1  0  0  0
  9 10  2  0  0  0
 10 11  1  0  0  0
 11 12  2  0  0  0
 11 13  1  0  0  0
 13 15  1  0  0  0
 15 16  2  0  0  0
 16 17  1  0  0  0
 17 18  2  0  0  0
 18 19  1  0  0  0
 19 20  2  0  0  0
 19 21  1  0  0  0
 21 22  1  0  0  0
 21 23  2  0  0  0
 21 24  2  0  0  0
 31 32  1  0  0  0
 32 33  1  0  0  0
 32 34  2  0  0  0
 34 28  1  0  0  0
 10  1  1  0  0  0
 20 15  1  0  0  0
  8  3  1  0  0  0
 13 14  1  0  0  0
 22 25  1  0  0  0
 22 26  1  0  0  0
M  END
> <minimizedAffinity>
13.30290

> <CNNscore>
0.4463352263

> <CNNaffinity>
7.7024207115

> <CNN_VS>
3.4378616810

> <CNNaffinity_variance>
1.5130692720

$$$$
[H]c1c([H])c(N([H])C(=O)c2nc3c([H])c([H])c([H])c([H])c3nc2Oc2c([H])c([H])c(OC([H])([H])[H])c([H])c2Cl)c([H])c(S(=O)(=O)N([H])[H])c1[H]


 36 39  0  0  0  0  0  0  0  0999 V2000
   12.5246   46.3701  133.5271 C   0  0  0  0  0  0  0  0  0  0  0  0
   13.6142   46.3964  134.3398 N   0  0  0  0  0  0  0  0  0  0  0  0
   13.8189   47.2683  135.3127 C   0  0  0  0  0  0  0  0  0  0  0  0
   14.9593   47.2418  136.1110 C   0  0  0  0  0  0  0  0  0  0  0  0
   15.1166   48.1708  137.1022 C   0  0  0  0  0  0  0  0  0  0  0  0
   14.1311   49.1164  137.2841 C   0  0  0  0  0  0  0  0  0  0  0  0
   12.9901   49.1716  136.5126 C   0  0  0  0  0  0  0  0  0  0  0  0
   12.8487   48.2255  135.5166 C   0  0  0  0  0  0  0  0  0  0  0  0
   11.7502   48.2521  134.7488 N   0  0  0  0  0  0  0  0  0  0  0  0
   11.5794   47.3292  133.7538 C   0  0  0  0  0  0  0  0  0  0  0  0
   10.3176   47.3787  132.9790 C   0  0  0  0  0  0  0  0  0  0  0  0
    9.2710   47.1215  133.5992 O   0  0  0  0  0  0  0  0  0  0  0  0
   10.3404   47.7041  131.6084 N   0  0  0  0  0  0  0  0  0  0  0  0
   11.3226   47.9007  131.2178 H   0  0  0  0  0  0  0  0  0  0  0  0
    9.2446   47.7982  130.7213 C   0  0  0  0  0  0  0  0  0  0  0  0
    8.9845   46.7193  129.8685 C   0  0  0  0  0  0  0  0  0  0  0  0
    7.9551   46.6963  128.9648 C   0  0  0  0  0  0  0  0  0  0  0  0
    7.1163   47.7987  128.8809 C   0  0  0  0  0  0  0  0  0  0  0  0
    7.3266   48.8813  129.6928 C   0  0  0  0  0  0  0  0  0  0  0  0
    8.3902   48.8617  130.6010 C   0  0  0  0  0  0  0  0  0  0  0  0
    6.2635   50.2592  129.5754 S   0  0  0  0  0  0  0  0  0  0  0  0
    6.9181   51.4131  128.4809 N   0  0  0  0  0  0  0  0  0  0  0  0
    6.1240   50.8882  130.9337 O   0  0  0  0  0  0  0  0  0  0  0  0
    4.9277   49.8099  129.0534 O   0  0  0  0  0  0  0  0  0  0  0  0
    6.8937   52.3606  128.9168 H   0  0  0  0  0  0  0  0  0  0  0  0
    7.9274   51.2324  128.2587 H   0  0  0  0  0  0  0  0  0  0  0  0
   12.4067   45.4130  132.5339 O   0  0  0  0  0  0  0  0  0  0  0  0
    9.0445   42.9467  132.2308 C   0  0  0  0  0  0  0  0  0  0  0  0
    9.5003   43.4107  133.4480 C   0  0  0  0  0  0  0  0  0  0  0  0
   10.6073   44.2249  133.5679 C   0  0  0  0  0  0  0  0  0  0  0  0
   11.2790   44.5843  132.4196 C   0  0  0  0  0  0  0  0  0  0  0  0
   10.8552   44.1415  131.1848 C   0  0  0  0  0  0  0  0  0  0  0  0
   11.7499   44.6320  129.7619 Cl  0  0  0  0  0  0  0  0  0  0  0  0
    9.7402   43.3257  131.1030 C   0  0  0  0  0  0  0  0  0  0  0  0
    7.4097   41.6808  130.9268 C   0  0  0  0  0  0  0  0  0  0  0  0
    7.9210   42.1250  132.1510 O   0  0  0  0  0  0  0  0  0  0  0  0
 35 36  1  0  0  0
 36 28  1  0  0  0
 28 29  2  0  0  0
 29 30  1  0  0  0
 30 31  2  0  0  0
 31 27  1  0  0  0
 27  1  1  0  0  0
  1  2  2  0  0  0
  2  3  1  0  0  0
  3  4  2  0  0  0
  4  5  1  0  0  0
  5  6  2  0  0  0
  6  7  1  0  0  0
  7  8  2  0  0  0
  8  9  1  0  0  0
  9 10  2  0  0  0
 10 11  1  0  0  0
 11 12  2  0  0  0
 11 13  1  0  0  0
 13 15  1  0  0  0
 15 16  2  0  0  0
 16 17  1  0  0  0
 17 18  2  0  0  0
 18 19  1  0  0  0
 19 20  2  0  0  0
 19 21  1  0  0  0
 21 22  1  0  0  0
 21 23  2  0  0  0
 21 24  2  0  0  0
 31 32  1  0  0  0
 32 33  1  0  0  0
 32 34  2  0  0  0
 34 28  1  0  0  0
 10  1  1  0  0  0
 20 15  1  0  0  0
  8  3  1  0  0  0
 13 14  1  0  0  0
 22 25  1  0  0  0
 22 26  1  0  0  0
M  END
> <minimizedAffinity>
8.96793

> <CNNscore>
0.4432242513

> <CNNaffinity>
7.8800559044

> <CNN_VS>
3.4926319122

> <CNNaffinity_variance>
1.2791274786

$$$$
[H]c1c([H])c(N([H])C(=O)c2nc3c([H])c([H])c([H])c([H])c3nc2Oc2c([H])c([H])c(OC([H])([H])[H])c([H])c2Cl)c([H])c(S(=O)(=O)N([H])[H])c1[H]


 36 39  0  0  0  0  0  0  0  0999 V2000
   11.7230   44.9296  132.7395 C   0  0  0  0  0  0  0  0  0  0  0  0
   12.1443   44.0885  133.7210 N   0  0  0  0  0  0  0  0  0  0  0  0
   11.6956   44.0829  134.9650 C   0  0  0  0  0  0  0  0  0  0  0  0
   12.1701   43.1939  135.9256 C   0  0  0  0  0  0  0  0  0  0  0  0
   11.6684   43.2359  137.1971 C   0  0  0  0  0  0  0  0  0  0  0  0
   10.6971   44.1670  137.4939 C   0  0  0  0  0  0  0  0  0  0  0  0
   10.2047   45.0615  136.5678 C   0  0  0  0  0  0  0  0  0  0  0  0
   10.7233   45.0041  135.2892 C   0  0  0  0  0  0  0  0  0  0  0  0
   10.2654   45.8606  134.3652 N   0  0  0  0  0  0  0  0  0  0  0  0
   10.7579   45.8301  133.0895 C   0  0  0  0  0  0  0  0  0  0  0  0
   10.1692   46.7649  132.1024 C   0  0  0  0  0  0  0  0  0  0  0  0
   10.8083   47.8056  131.8687 O   0  0  0  0  0  0  0  0  0  0  0  0
    8.9436   46.4574  131.4790 N   0  0  0  0  0  0  0  0  0  0  0  0
    8.5148   45.5208  131.7866 H   0  0  0  0  0  0  0  0  0  0  0  0
    8.2413   47.2240  130.5220 C   0  0  0  0  0  0  0  0  0  0  0  0
    7.8467   46.6025  129.3316 C   0  0  0  0  0  0  0  0  0  0  0  0
    7.1654   47.2427  128.3302 C   0  0  0  0  0  0  0  0  0  0  0  0
    6.8427   48.5826  128.4935 C   0  0  0  0  0  0  0  0  0  0  0  0
    7.2056   49.2384  129.6397 C   0  0  0  0  0  0  0  0  0  0  0  0
    7.9005   48.5455  130.6363 C   0  0  0  0  0  0  0  0  0  0  0  0
    6.7926   50.9224  129.8300 S   0  0  0  0  0  0  0  0  0  0  0  0
    6.8371   51.7130  128.3032 N   0  0  0  0  0  0  0  0  0  0  0  0
    7.7873   51.5701  130.7524 O   0  0  0  0  0  0  0  0  0  0  0  0
    5.3995   51.0303  130.3834 O   0  0  0  0  0  0  0  0  0  0  0  0
    7.3833   52.5981  128.3843 H   0  0  0  0  0  0  0  0  0  0  0  0
    7.3276   51.1468  127.5688 H   0  0  0  0  0  0  0  0  0  0  0  0
   12.2599   44.8543  131.4657 O   0  0  0  0  0  0  0  0  0  0  0  0
   10.1112   43.3878  128.1929 C   0  0  0  0  0  0  0  0  0  0  0  0
   10.8362   44.5599  128.1223 C   0  0  0  0  0  0  0  0  0  0  0  0
   11.5511   45.0594  129.1911 C   0  0  0  0  0  0  0  0  0  0  0  0
   11.5344   44.3520  130.3735 C   0  0  0  0  0  0  0  0  0  0  0  0
   10.8223   43.1768  130.4843 C   0  0  0  0  0  0  0  0  0  0  0  0
   10.8394   42.3228  132.0127 Cl  0  0  0  0  0  0  0  0  0  0  0  0
   10.1166   42.7059  129.3907 C   0  0  0  0  0  0  0  0  0  0  0  0
    8.6418   43.7625  126.2756 C   0  0  0  0  0  0  0  0  0  0  0  0
    9.4011   42.9155  127.0900 O   0  0  0  0  0  0  0  0  0  0  0  0
 35 36  1  0  0  0
 36 28  1  0  0  0
 28 29  2  0  0  0
 29 30  1  0  0  0
 30 31  2  0  0  0
 31 27  1  0  0  0
 27  1  1  0  0  0
  1  2  2  0  0  0
  2  3  1  0  0  0
  3  4  2  0  0  0
  4  5  1  0  0  0
  5  6  2  0  0  0
  6  7  1  0  0  0
  7  8  2  0  0  0
  8  9  1  0  0  0
  9 10  2  0  0  0
 10 11  1  0  0  0
 11 12  2  0  0  0
 11 13  1  0  0  0
 13 15  1  0  0  0
 15 16  2  0  0  0
 16 17  1  0  0  0
 17 18  2  0  0  0
 18 19  1  0  0  0
 19 20  2  0  0  0
 19 21  1  0  0  0
 21 22  1  0  0  0
 21 23  2  0  0  0
 21 24  2  0  0  0
 31 32  1  0  0  0
 32 33  1  0  0  0
 32 34  2  0  0  0
 34 28  1  0  0  0
 10  1  1  0  0  0
 20 15  1  0  0  0
  8  3  1  0  0  0
 13 14  1  0  0  0
 22 25  1  0  0  0
 22 26  1  0  0  0
M  END
> <minimizedAffinity>
5.72367

> <CNNscore>
0.4402943850

> <CNNaffinity>
7.8945398331

> <CNN_VS>
3.4759216309

> <CNNaffinity_variance>
0.7086250782

$$$$
[H]c1c([H])c(C2([H])Oc3c([H])c(OC([H])([H])[H])c(OC([H])([H])[H])c([H])c3C(=O)c3c([H])c(OC([H])([H])[H])c(OC([H])([H])[H])c([H])c32)c([H])c(OC([H])([H])[H])c1OC([H])([H])[H]


 34 37  0  0  0  0  0  0  0  0999 V2000
   11.0642   46.1333  129.3815 C   0  0  0  0  0  0  0  0  0  0  0  0
   10.6495   45.2970  130.4260 C   0  0  0  0  0  0  0  0  0  0  0  0
   11.4444   44.2878  130.8426 C   0  0  0  0  0  0  0  0  0  0  0  0
   12.6763   44.0987  130.2110 C   0  0  0  0  0  0  0  0  0  0  0  0
   13.1067   44.9189  129.1684 C   0  0  0  0  0  0  0  0  0  0  0  0
   12.2582   45.9360  128.7834 C   0  0  0  0  0  0  0  0  0  0  0  0
    9.3713   45.3703  131.1030 C   0  0  0  0  0  0  0  0  0  0  0  0
    8.9548   46.6479  131.5338 O   0  0  0  0  0  0  0  0  0  0  0  0
    8.5147   47.6620  130.6294 C   0  0  0  0  0  0  0  0  0  0  0  0
    7.4288   48.3779  131.0428 C   0  0  0  0  0  0  0  0  0  0  0  0
    6.9250   49.3589  130.2090 C   0  0  0  0  0  0  0  0  0  0  0  0
    7.5029   49.6167  128.9942 C   0  0  0  0  0  0  0  0  0  0  0  0
    8.6195   48.8779  128.5905 C   0  0  0  0  0  0  0  0  0  0  0  0
    9.1250   47.8894  129.4274 C   0  0  0  0  0  0  0  0  0  0  0  0
   10.3205   47.2774  128.8073 C   0  0  0  0  0  0  0  0  0  0  0  0
   10.7363   47.7508  127.7326 O   0  0  0  0  0  0  0  0  0  0  0  0
    8.9608   44.3177  132.0236 C   0  0  0  0  0  0  0  0  0  0  0  0
    9.6976   44.0135  133.1560 C   0  0  0  0  0  0  0  0  0  0  0  0
    9.2315   43.0008  134.0270 C   0  0  0  0  0  0  0  0  0  0  0  0
    8.0810   42.3603  133.7278 C   0  0  0  0  0  0  0  0  0  0  0  0
    7.3457   42.6677  132.5883 C   0  0  0  0  0  0  0  0  0  0  0  0
    7.7619   43.6256  131.7393 C   0  0  0  0  0  0  0  0  0  0  0  0
    9.9175   42.6474  135.1752 O   0  0  0  0  0  0  0  0  0  0  0  0
   11.0908   43.4042  135.4873 C   0  0  0  0  0  0  0  0  0  0  0  0
    7.5341   41.3383  134.5414 O   0  0  0  0  0  0  0  0  0  0  0  0
    6.2194   40.9376  134.4168 C   0  0  0  0  0  0  0  0  0  0  0  0
   13.5446   43.0851  130.5785 O   0  0  0  0  0  0  0  0  0  0  0  0
   13.4251   42.5239  131.8583 C   0  0  0  0  0  0  0  0  0  0  0  0
   14.3237   44.6895  128.5730 O   0  0  0  0  0  0  0  0  0  0  0  0
   15.3133   43.7962  128.9263 C   0  0  0  0  0  0  0  0  0  0  0  0
    5.7940   50.0581  130.6982 O   0  0  0  0  0  0  0  0  0  0  0  0
    4.5960   49.9818  129.9789 C   0  0  0  0  0  0  0  0  0  0  0  0
    6.9665   50.6016  128.1930 O   0  0  0  0  0  0  0  0  0  0  0  0
    7.0320   51.9835  128.4193 C   0  0  0  0  0  0  0  0  0  0  0  0
  1  2  1  0  0  0
  2  3  2  0  0  0
  3  4  1  0  0  0
  4 27  1  0  0  0
 27 28  1  0  0  0
  4  5  2  0  0  0
  5 29  1  0  0  0
 29 30  1  0  0  0
  5  6  1  0  0  0
  2  7  1  0  0  0
  7 17  1  0  0  0
 17 18  2  0  0  0
 18 19  1  0  0  0
 19 23  1  0  0  0
 23 24  1  0  0  0
 19 20  2  0  0  0
 20 25  1  0  0  0
 25 26  1  0  0  0
 20 21  1  0  0  0
 21 22  2  0  0  0
  7  8  1  0  0  0
  8  9  1  0  0  0
  9 10  2  0  0  0
 10 11  1  0  0  0
 11 31  1  0  0  0
 31 32  1  0  0  0
 11 12  2  0  0  0
 12 33  1  0  0  0
 33 34  1  0  0  0
 12 13  1  0  0  0
 13 14  2  0  0  0
 14 15  1  0  0  0
 15 16  2  0  0  0
  6  1  2  0  0  0
 22 17  1  0  0  0
 14  9  1  0  0  0
 15  1  1  0  0  0
M  END
> <minimizedAffinity>
18.92176

> <CNNscore>
0.5364226103

> <CNNaffinity>
7.2257184982

> <CNN_VS>
3.8760387897

> <CNNaffinity_variance>
2.2509238720

$$$$
[H]c1c([H])c(C2([H])Oc3c([H])c(OC([H])([H])[H])c(OC([H])([H])[H])c([H])c3C(=O)c3c([H])c(OC([H])([H])[H])c(OC([H])([H])[H])c([H])c32)c([H])c(OC([H])([H])[H])c1OC([H])([H])[H]


 34 37  0  0  0  0  0  0  0  0999 V2000
    9.3226   47.3850  133.4001 C   0  0  0  0  0  0  0  0  0  0  0  0
   10.0624   46.4608  132.6511 C   0  0  0  0  0  0  0  0  0  0  0  0
   10.7075   45.4484  133.2699 C   0  0  0  0  0  0  0  0  0  0  0  0
   10.6220   45.3483  134.6609 C   0  0  0  0  0  0  0  0  0  0  0  0
    9.8924   46.2588  135.4247 C   0  0  0  0  0  0  0  0  0  0  0  0
    9.2506   47.2720  134.7434 C   0  0  0  0  0  0  0  0  0  0  0  0
   10.2631   46.5108  131.2177 C   0  0  0  0  0  0  0  0  0  0  0  0
    9.1148   46.7173  130.4239 O   0  0  0  0  0  0  0  0  0  0  0  0
    8.4392   47.9738  130.3560 C   0  0  0  0  0  0  0  0  0  0  0  0
    8.0211   48.3422  129.1101 C   0  0  0  0  0  0  0  0  0  0  0  0
    7.3840   49.5597  128.9577 C   0  0  0  0  0  0  0  0  0  0  0  0
    7.1677   50.3815  130.0320 C   0  0  0  0  0  0  0  0  0  0  0  0
    7.5964   49.9840  131.3023 C   0  0  0  0  0  0  0  0  0  0  0  0
    8.2396   48.7610  131.4558 C   0  0  0  0  0  0  0  0  0  0  0  0
    8.5610   48.5447  132.8835 C   0  0  0  0  0  0  0  0  0  0  0  0
    8.1672   49.3877  133.7119 O   0  0  0  0  0  0  0  0  0  0  0  0
   11.2253   45.6252  130.5745 C   0  0  0  0  0  0  0  0  0  0  0  0
   10.9195   44.9416  129.4097 C   0  0  0  0  0  0  0  0  0  0  0  0
   11.9061   44.1195  128.8166 C   0  0  0  0  0  0  0  0  0  0  0  0
   13.1180   44.0254  129.4048 C   0  0  0  0  0  0  0  0  0  0  0  0
   13.4198   44.7118  130.5758 C   0  0  0  0  0  0  0  0  0  0  0  0
   12.5033   45.5020  131.1651 C   0  0  0  0  0  0  0  0  0  0  0  0
   11.6678   43.4099  127.6532 O   0  0  0  0  0  0  0  0  0  0  0  0
   10.3055   43.0859  127.3599 C   0  0  0  0  0  0  0  0  0  0  0  0
   14.1686   43.2327  128.8821 O   0  0  0  0  0  0  0  0  0  0  0  0
   15.4630   43.7049  128.8025 C   0  0  0  0  0  0  0  0  0  0  0  0
   11.2575   44.3415  135.3673 O   0  0  0  0  0  0  0  0  0  0  0  0
   12.3347   43.6721  134.7684 C   0  0  0  0  0  0  0  0  0  0  0  0
    9.8433   46.1234  136.7913 O   0  0  0  0  0  0  0  0  0  0  0  0
    9.9526   44.9834  137.5596 C   0  0  0  0  0  0  0  0  0  0  0  0
    6.9829   49.8809  127.6374 O   0  0  0  0  0  0  0  0  0  0  0  0
    6.8663   48.8465  126.7019 C   0  0  0  0  0  0  0  0  0  0  0  0
    6.5313   51.5880  129.8347 O   0  0  0  0  0  0  0  0  0  0  0  0
    6.7673   52.4899  128.7878 C   0  0  0  0  0  0  0  0  0  0  0  0
  1  2  1  0  0  0
  2  3  2  0  0  0
  3  4  1  0  0  0
  4 27  1  0  0  0
 27 28  1  0  0  0
  4  5  2  0  0  0
  5 29  1  0  0  0
 29 30  1  0  0  0
  5  6  1  0  0  0
  2  7  1  0  0  0
  7 17  1  0  0  0
 17 18  2  0  0  0
 18 19  1  0  0  0
 19 23  1  0  0  0
 23 24  1  0  0  0
 19 20  2  0  0  0
 20 25  1  0  0  0
 25 26  1  0  0  0
 20 21  1  0  0  0
 21 22  2  0  0  0
  7  8  1  0  0  0
  8  9  1  0  0  0
  9 10  2  0  0  0
 10 11  1  0  0  0
 11 31  1  0  0  0
 31 32  1  0  0  0
 11 12  2  0  0  0
 12 33  1  0  0  0
 33 34  1  0  0  0
 12 13  1  0  0  0
 13 14  2  0  0  0
 14 15  1  0  0  0
 15 16  2  0  0  0
  6  1  2  0  0  0
 22 17  1  0  0  0
 14  9  1  0  0  0
 15  1  1  0  0  0
M  END
> <minimizedAffinity>
12.26999

> <CNNscore>
0.4642523825

> <CNNaffinity>
7.2173409462

> <CNN_VS>
3.3506677151

> <CNNaffinity_variance>
1.6535789967

$$$$
[H]c1c([H])c(C2([H])Oc3c([H])c(OC([H])([H])[H])c(OC([H])([H])[H])c([H])c3C(=O)c3c([H])c(OC([H])([H])[H])c(OC([H])([H])[H])c([H])c32)c([H])c(OC([H])([H])[H])c1OC([H])([H])[H]


 34 37  0  0  0  0  0  0  0  0999 V2000
   10.8224   46.6328  133.2289 C   0  0  0  0  0  0  0  0  0  0  0  0
   10.1443   47.5428  132.4075 C   0  0  0  0  0  0  0  0  0  0  0  0
   10.1054   48.8525  132.7347 C   0  0  0  0  0  0  0  0  0  0  0  0
   10.7490   49.2726  133.9016 C   0  0  0  0  0  0  0  0  0  0  0  0
   11.4277   48.3826  134.7335 C   0  0  0  0  0  0  0  0  0  0  0  0
   11.4391   47.0570  134.3523 C   0  0  0  0  0  0  0  0  0  0  0  0
    9.3975   47.2016  131.2145 C   0  0  0  0  0  0  0  0  0  0  0  0
   10.0378   46.3520  130.2874 O   0  0  0  0  0  0  0  0  0  0  0  0
   10.2483   44.9608  130.5329 C   0  0  0  0  0  0  0  0  0  0  0  0
   10.0268   44.1420  129.4636 C   0  0  0  0  0  0  0  0  0  0  0  0
   10.1817   42.7783  129.6297 C   0  0  0  0  0  0  0  0  0  0  0  0
   10.5560   42.2533  130.8382 C   0  0  0  0  0  0  0  0  0  0  0  0
   10.7858   43.1083  131.9206 C   0  0  0  0  0  0  0  0  0  0  0  0
   10.6275   44.4796  131.7551 C   0  0  0  0  0  0  0  0  0  0  0  0
   10.9614   45.1741  133.0178 C   0  0  0  0  0  0  0  0  0  0  0  0
   11.3898   44.4947  133.9701 O   0  0  0  0  0  0  0  0  0  0  0  0
    8.5546   48.1946  130.5607 C   0  0  0  0  0  0  0  0  0  0  0  0
    7.3153   47.8658  130.0373 C   0  0  0  0  0  0  0  0  0  0  0  0
    6.5306   48.8804  129.4408 C   0  0  0  0  0  0  0  0  0  0  0  0
    7.0139   50.1407  129.3992 C   0  0  0  0  0  0  0  0  0  0  0  0
    8.2599   50.4657  129.9240 C   0  0  0  0  0  0  0  0  0  0  0  0
    9.0310   49.5235  130.4980 C   0  0  0  0  0  0  0  0  0  0  0  0
    5.2841   48.6215  128.8996 O   0  0  0  0  0  0  0  0  0  0  0  0
    4.7675   47.2979  129.0676 C   0  0  0  0  0  0  0  0  0  0  0  0
    6.2992   51.2215  128.8281 O   0  0  0  0  0  0  0  0  0  0  0  0
    6.9458   52.3215  128.3021 C   0  0  0  0  0  0  0  0  0  0  0  0
   10.7509   50.5967  134.3058 O   0  0  0  0  0  0  0  0  0  0  0  0
    9.9377   51.5129  133.6228 C   0  0  0  0  0  0  0  0  0  0  0  0
   12.0397   48.8418  135.8750 O   0  0  0  0  0  0  0  0  0  0  0  0
   13.3845   48.9457  136.1625 C   0  0  0  0  0  0  0  0  0  0  0  0
    9.9299   41.9882  128.4809 O   0  0  0  0  0  0  0  0  0  0  0  0
    9.6102   42.6330  127.2807 C   0  0  0  0  0  0  0  0  0  0  0  0
   10.6960   40.8876  130.9605 O   0  0  0  0  0  0  0  0  0  0  0  0
   11.3493   40.2095  131.9989 C   0  0  0  0  0  0  0  0  0  0  0  0
  1  2  1  0  0  0
  2  3  2  0  0  0
  3  4  1  0  0  0
  4 27  1  0  0  0
 27 28  1  0  0  0
  4  5  2  0  0  0
  5 29  1  0  0  0
 29 30  1  0  0  0
  5  6  1  0  0  0
  2  7  1  0  0  0
  7 17  1  0  0  0
 17 18  2  0  0  0
 18 19  1  0  0  0
 19 23  1  0  0  0
 23 24  1  0  0  0
 19 20  2  0  0  0
 20 25  1  0  0  0
 25 26  1  0  0  0
 20 21  1  0  0  0
 21 22  2  0  0  0
  7  8  1  0  0  0
  8  9  1  0  0  0
  9 10  2  0  0  0
 10 11  1  0  0  0
 11 31  1  0  0  0
 31 32  1  0  0  0
 11 12  2  0  0  0
 12 33  1  0  0  0
 33 34  1  0  0  0
 12 13  1  0  0  0
 13 14  2  0  0  0
 14 15  1  0  0  0
 15 16  2  0  0  0
  6  1  2  0  0  0
 22 17  1  0  0  0
 14  9  1  0  0  0
 15  1  1  0  0  0
M  END
> <minimizedAffinity>
10.80438

> <CNNscore>
0.4565381408

> <CNNaffinity>
7.3689641953

> <CNN_VS>
3.3642132282

> <CNNaffinity_variance>
1.5044834614

$$$$
[H]c1c([H])c(C2([H])Oc3c([H])c(OC([H])([H])[H])c(OC([H])([H])[H])c([H])c3C(=O)c3c([H])c(OC([H])([H])[H])c(OC([H])([H])[H])c([H])c32)c([H])c(OC([H])([H])[H])c1OC([H])([H])[H]


 34 37  0  0  0  0  0  0  0  0999 V2000
   10.0471   48.2301  132.7151 C   0  0  0  0  0  0  0  0  0  0  0  0
    9.8216   46.8981  132.3446 C   0  0  0  0  0  0  0  0  0  0  0  0
   10.4389   45.8964  133.0077 C   0  0  0  0  0  0  0  0  0  0  0  0
   11.3008   46.2182  134.0592 C   0  0  0  0  0  0  0  0  0  0  0  0
   11.5401   47.5376  134.4424 C   0  0  0  0  0  0  0  0  0  0  0  0
   10.8828   48.5221  133.7342 C   0  0  0  0  0  0  0  0  0  0  0  0
    8.9981   46.4632  131.2355 C   0  0  0  0  0  0  0  0  0  0  0  0
    7.7159   47.0435  131.1326 O   0  0  0  0  0  0  0  0  0  0  0  0
    7.5121   48.3987  130.7303 C   0  0  0  0  0  0  0  0  0  0  0  0
    6.4669   48.6004  129.8761 C   0  0  0  0  0  0  0  0  0  0  0  0
    6.2227   49.8819  129.4184 C   0  0  0  0  0  0  0  0  0  0  0  0
    7.0058   50.9335  129.8152 C   0  0  0  0  0  0  0  0  0  0  0  0
    8.0678   50.7088  130.6968 C   0  0  0  0  0  0  0  0  0  0  0  0
    8.3156   49.4199  131.1553 C   0  0  0  0  0  0  0  0  0  0  0  0
    9.4550   49.4389  132.0985 C   0  0  0  0  0  0  0  0  0  0  0  0
    9.9535   50.5399  132.4005 O   0  0  0  0  0  0  0  0  0  0  0  0
    9.0077   45.0695  130.8094 C   0  0  0  0  0  0  0  0  0  0  0  0
    9.4861   44.6922  129.5658 C   0  0  0  0  0  0  0  0  0  0  0  0
    9.4967   43.3202  129.2214 C   0  0  0  0  0  0  0  0  0  0  0  0
    9.0393   42.4184  130.1164 C   0  0  0  0  0  0  0  0  0  0  0  0
    8.5577   42.8021  131.3631 C   0  0  0  0  0  0  0  0  0  0  0  0
    8.5340   44.0994  131.7213 C   0  0  0  0  0  0  0  0  0  0  0  0
    9.9614   42.8744  127.9970 O   0  0  0  0  0  0  0  0  0  0  0  0
   10.7884   43.7733  127.2520 C   0  0  0  0  0  0  0  0  0  0  0  0
    9.0161   41.0252  129.8633 O   0  0  0  0  0  0  0  0  0  0  0  0
   10.0698   40.2064  130.2151 C   0  0  0  0  0  0  0  0  0  0  0  0
   11.9724   45.2486  134.7841 O   0  0  0  0  0  0  0  0  0  0  0  0
   11.8499   43.9071  134.3937 C   0  0  0  0  0  0  0  0  0  0  0  0
   12.4020   47.8052  135.4786 O   0  0  0  0  0  0  0  0  0  0  0  0
   12.9641   49.0061  135.8579 C   0  0  0  0  0  0  0  0  0  0  0  0
    5.1269   50.0176  128.5306 O   0  0  0  0  0  0  0  0  0  0  0  0
    3.8402   49.7418  129.0068 C   0  0  0  0  0  0  0  0  0  0  0  0
    6.7288   52.1942  129.3322 O   0  0  0  0  0  0  0  0  0  0  0  0
    7.0864   52.6987  128.0741 C   0  0  0  0  0  0  0  0  0  0  0  0
  1  2  1  0  0  0
  2  3  2  0  0  0
  3  4  1  0  0  0
  4 27  1  0  0  0
 27 28  1  0  0  0
  4  5  2  0  0  0
  5 29  1  0  0  0
 29 30  1  0  0  0
  5  6  1  0  0  0
  2  7  1  0  0  0
  7 17  1  0  0  0
 17 18  2  0  0  0
 18 19  1  0  0  0
 19 23  1  0  0  0
 23 24  1  0  0  0
 19 20  2  0  0  0
 20 25  1  0  0  0
 25 26  1  0  0  0
 20 21  1  0  0  0
 21 22  2  0  0  0
  7  8  1  0  0  0
  8  9  1  0  0  0
  9 10  2  0  0  0
 10 11  1  0  0  0
 11 31  1  0  0  0
 31 32  1  0  0  0
 11 12  2  0  0  0
 12 33  1  0  0  0
 33 34  1  0  0  0
 12 13  1  0  0  0
 13 14  2  0  0  0
 14 15  1  0  0  0
 15 16  2  0  0  0
  6  1  2  0  0  0
 22 17  1  0  0  0
 14  9  1  0  0  0
 15  1  1  0  0  0
M  END
> <minimizedAffinity>
8.55663

> <CNNscore>
0.4429362118

> <CNNaffinity>
7.4155416489

> <CNN_VS>
3.2846119404

> <CNNaffinity_variance>
1.2829215527

$$$$
[H]c1c([H])c(C2([H])Oc3c([H])c(OC([H])([H])[H])c(OC([H])([H])[H])c([H])c3C(=O)c3c([H])c(OC([H])([H])[H])c(OC([H])([H])[H])c([H])c32)c([H])c(OC([H])([H])[H])c1OC([H])([H])[H]


 34 37  0  0  0  0  0  0  0  0999 V2000
    8.9865   48.8980  131.3495 C   0  0  0  0  0  0  0  0  0  0  0  0
    9.0853   47.7768  130.5154 C   0  0  0  0  0  0  0  0  0  0  0  0
    8.3999   47.7347  129.3525 C   0  0  0  0  0  0  0  0  0  0  0  0
    7.5962   48.8241  129.0069 C   0  0  0  0  0  0  0  0  0  0  0  0
    7.4828   49.9485  129.8240 C   0  0  0  0  0  0  0  0  0  0  0  0
    8.2054   49.9417  130.9989 C   0  0  0  0  0  0  0  0  0  0  0  0
    9.8394   46.5758  130.8094 C   0  0  0  0  0  0  0  0  0  0  0  0
   11.1644   46.7542  131.2611 O   0  0  0  0  0  0  0  0  0  0  0  0
   11.4755   47.2481  132.5646 C   0  0  0  0  0  0  0  0  0  0  0  0
   12.5124   46.6202  133.1918 C   0  0  0  0  0  0  0  0  0  0  0  0
   12.8560   47.0224  134.4691 C   0  0  0  0  0  0  0  0  0  0  0  0
   12.1780   48.0342  135.0959 C   0  0  0  0  0  0  0  0  0  0  0  0
   11.1230   48.6711  134.4348 C   0  0  0  0  0  0  0  0  0  0  0  0
   10.7752   48.2652  133.1514 C   0  0  0  0  0  0  0  0  0  0  0  0
    9.6661   49.1049  132.6485 C   0  0  0  0  0  0  0  0  0  0  0  0
    9.2733   50.0512  133.3572 O   0  0  0  0  0  0  0  0  0  0  0  0
    9.6974   45.3905  129.9734 C   0  0  0  0  0  0  0  0  0  0  0  0
    8.9479   44.2992  130.3797 C   0  0  0  0  0  0  0  0  0  0  0  0
    8.8234   43.1898  129.5110 C   0  0  0  0  0  0  0  0  0  0  0  0
    9.4400   43.2278  128.3102 C   0  0  0  0  0  0  0  0  0  0  0  0
   10.1935   44.3249  127.9074 C   0  0  0  0  0  0  0  0  0  0  0  0
   10.3318   45.3961  128.7106 C   0  0  0  0  0  0  0  0  0  0  0  0
    8.0895   42.0682  129.8534 O   0  0  0  0  0  0  0  0  0  0  0  0
    7.6906   41.9484  131.2221 C   0  0  0  0  0  0  0  0  0  0  0  0
    9.3679   42.1685  127.3732 O   0  0  0  0  0  0  0  0  0  0  0  0
   10.1415   41.0328  127.5014 C   0  0  0  0  0  0  0  0  0  0  0  0
    6.8610   48.8543  127.8342 O   0  0  0  0  0  0  0  0  0  0  0  0
    5.6706   48.1161  127.7638 C   0  0  0  0  0  0  0  0  0  0  0  0
    6.6740   50.9928  129.4451 O   0  0  0  0  0  0  0  0  0  0  0  0
    6.9581   52.0622  128.6219 C   0  0  0  0  0  0  0  0  0  0  0  0
   13.9366   46.3239  135.0621 O   0  0  0  0  0  0  0  0  0  0  0  0
   13.9858   44.9312  134.9336 C   0  0  0  0  0  0  0  0  0  0  0  0
   12.5517   48.4015  136.3706 O   0  0  0  0  0  0  0  0  0  0  0  0
   13.7418   49.0474  136.7335 C   0  0  0  0  0  0  0  0  0  0  0  0
  1  2  1  0  0  0
  2  3  2  0  0  0
  3  4  1  0  0  0
  4 27  1  0  0  0
 27 28  1  0  0  0
  4  5  2  0  0  0
  5 29  1  0  0  0
 29 30  1  0  0  0
  5  6  1  0  0  0
  2  7  1  0  0  0
  7 17  1  0  0  0
 17 18  2  0  0  0
 18 19  1  0  0  0
 19 23  1  0  0  0
 23 24  1  0  0  0
 19 20  2  0  0  0
 20 25  1  0  0  0
 25 26  1  0  0  0
 20 21  1  0  0  0
 21 22  2  0  0  0
  7  8  1  0  0  0
  8  9  1  0  0  0
  9 10  2  0  0  0
 10 11  1  0  0  0
 11 31  1  0  0  0
 31 32  1  0  0  0
 11 12  2  0  0  0
 12 33  1  0  0  0
 33 34  1  0  0  0
 12 13  1  0  0  0
 13 14  2  0  0  0
 14 15  1  0  0  0
 15 16  2  0  0  0
  6  1  2  0  0  0
 22 17  1  0  0  0
 14  9  1  0  0  0
 15  1  1  0  0  0
M  END
> <minimizedAffinity>
14.51791

> <CNNscore>
0.4400013089

> <CNNaffinity>
7.1073417664

> <CNN_VS>
3.1272397041

> <CNNaffinity_variance>
1.2405657768

$$$$
[H]c1c([H])c(C2([H])Oc3c([H])c(OC([H])([H])[H])c(OC([H])([H])[H])c([H])c3C(=O)c3c([H])c(OC([H])([H])[H])c(OC([H])([H])[H])c([H])c32)c([H])c(OC([H])([H])[H])c1OC([H])([H])[H]


 34 37  0  0  0  0  0  0  0  0999 V2000
   10.5239   46.4122  129.5176 C   0  0  0  0  0  0  0  0  0  0  0  0
   10.5533   46.1508  130.8935 C   0  0  0  0  0  0  0  0  0  0  0  0
   11.4212   45.2446  131.3929 C   0  0  0  0  0  0  0  0  0  0  0  0
   12.2781   44.5792  130.5123 C   0  0  0  0  0  0  0  0  0  0  0  0
   12.2633   44.8236  129.1394 C   0  0  0  0  0  0  0  0  0  0  0  0
   11.3597   45.7601  128.6819 C   0  0  0  0  0  0  0  0  0  0  0  0
    9.6698   46.7392  131.8788 C   0  0  0  0  0  0  0  0  0  0  0  0
    9.5028   48.1394  131.8243 O   0  0  0  0  0  0  0  0  0  0  0  0
    8.7574   48.7883  130.7932 C   0  0  0  0  0  0  0  0  0  0  0  0
    7.9581   49.8128  131.2108 C   0  0  0  0  0  0  0  0  0  0  0  0
    7.1828   50.4723  130.2753 C   0  0  0  0  0  0  0  0  0  0  0  0
    7.2160   50.1144  128.9535 C   0  0  0  0  0  0  0  0  0  0  0  0
    8.0466   49.0670  128.5429 C   0  0  0  0  0  0  0  0  0  0  0  0
    8.8245   48.4016  129.4836 C   0  0  0  0  0  0  0  0  0  0  0  0
    9.6414   47.3679  128.8108 C   0  0  0  0  0  0  0  0  0  0  0  0
    9.5906   47.2911  127.5684 O   0  0  0  0  0  0  0  0  0  0  0  0
    9.6461   46.2345  133.2458 C   0  0  0  0  0  0  0  0  0  0  0  0
   10.0092   44.9325  133.5470 C   0  0  0  0  0  0  0  0  0  0  0  0
    9.9939   44.5101  134.8970 C   0  0  0  0  0  0  0  0  0  0  0  0
    9.6251   45.3900  135.8527 C   0  0  0  0  0  0  0  0  0  0  0  0
    9.2590   46.6958  135.5452 C   0  0  0  0  0  0  0  0  0  0  0  0
    9.2628   47.1287  134.2708 C   0  0  0  0  0  0  0  0  0  0  0  0
   10.3455   43.2246  135.2678 O   0  0  0  0  0  0  0  0  0  0  0  0
   10.2249   42.2069  134.2695 C   0  0  0  0  0  0  0  0  0  0  0  0
    9.5846   45.0602  137.2293 O   0  0  0  0  0  0  0  0  0  0  0  0
   10.6643   44.4868  137.8698 C   0  0  0  0  0  0  0  0  0  0  0  0
   13.1925   43.6350  130.9468 O   0  0  0  0  0  0  0  0  0  0  0  0
   13.0106   43.0484  132.2078 C   0  0  0  0  0  0  0  0  0  0  0  0
   13.1204   44.1391  128.3118 O   0  0  0  0  0  0  0  0  0  0  0  0
   14.4934   44.0270  128.3777 C   0  0  0  0  0  0  0  0  0  0  0  0
    6.3732   51.5203  130.7790 O   0  0  0  0  0  0  0  0  0  0  0  0
    5.0140   51.2705  130.9999 C   0  0  0  0  0  0  0  0  0  0  0  0
    6.4245   50.7968  128.0550 O   0  0  0  0  0  0  0  0  0  0  0  0
    6.5616   52.1410  127.6812 C   0  0  0  0  0  0  0  0  0  0  0  0
  1  2  1  0  0  0
  2  3  2  0  0  0
  3  4  1  0  0  0
  4 27  1  0  0  0
 27 28  1  0  0  0
  4  5  2  0  0  0
  5 29  1  0  0  0
 29 30  1  0  0  0
  5  6  1  0  0  0
  2  7  1  0  0  0
  7 17  1  0  0  0
 17 18  2  0  0  0
 18 19  1  0  0  0
 19 23  1  0  0  0
 23 24  1  0  0  0
 19 20  2  0  0  0
 20 25  1  0  0  0
 25 26  1  0  0  0
 20 21  1  0  0  0
 21 22  2  0  0  0
  7  8  1  0  0  0
  8  9  1  0  0  0
  9 10  2  0  0  0
 10 11  1  0  0  0
 11 31  1  0  0  0
 31 32  1  0  0  0
 11 12  2  0  0  0
 12 33  1  0  0  0
 33 34  1  0  0  0
 12 13  1  0  0  0
 13 14  2  0  0  0
 14 15  1  0  0  0
 15 16  2  0  0  0
  6  1  2  0  0  0
 22 17  1  0  0  0
 14  9  1  0  0  0
 15  1  1  0  0  0
M  END
> <minimizedAffinity>
15.66181

> <CNNscore>
0.4221680760

> <CNNaffinity>
7.1580553055

> <CNN_VS>
3.0219023228

> <CNNaffinity_variance>
1.1245349646

$$$$
[H]c1c([H])c(C2([H])Oc3c([H])c(OC([H])([H])[H])c(OC([H])([H])[H])c([H])c3C(=O)c3c([H])c(OC([H])([H])[H])c(OC([H])([H])[H])c([H])c32)c([H])c(OC([H])([H])[H])c1OC([H])([H])[H]


 34 37  0  0  0  0  0  0  0  0999 V2000
    8.7954   46.7688  129.2516 C   0  0  0  0  0  0  0  0  0  0  0  0
    8.7749   46.8200  130.6514 C   0  0  0  0  0  0  0  0  0  0  0  0
    8.3958   47.9521  131.2827 C   0  0  0  0  0  0  0  0  0  0  0  0
    8.0312   49.0601  130.5135 C   0  0  0  0  0  0  0  0  0  0  0  0
    8.0466   49.0302  129.1193 C   0  0  0  0  0  0  0  0  0  0  0  0
    8.4392   47.8490  128.5247 C   0  0  0  0  0  0  0  0  0  0  0  0
    9.1902   45.7516  131.5365 C   0  0  0  0  0  0  0  0  0  0  0  0
    8.6832   44.4645  131.2577 O   0  0  0  0  0  0  0  0  0  0  0  0
    9.1211   43.6875  130.1422 C   0  0  0  0  0  0  0  0  0  0  0  0
    9.3058   42.3592  130.3959 C   0  0  0  0  0  0  0  0  0  0  0  0
    9.7568   41.5454  129.3733 C   0  0  0  0  0  0  0  0  0  0  0  0
   10.0088   42.0540  128.1266 C   0  0  0  0  0  0  0  0  0  0  0  0
    9.8066   43.4162  127.8832 C   0  0  0  0  0  0  0  0  0  0  0  0
    9.3558   44.2356  128.9119 C   0  0  0  0  0  0  0  0  0  0  0  0
    9.1817   45.6153  128.4077 C   0  0  0  0  0  0  0  0  0  0  0  0
    9.3686   45.8289  127.1947 O   0  0  0  0  0  0  0  0  0  0  0  0
    9.3315   45.9898  132.9674 C   0  0  0  0  0  0  0  0  0  0  0  0
   10.0593   45.1355  133.7787 C   0  0  0  0  0  0  0  0  0  0  0  0
   10.1848   45.4365  135.1553 C   0  0  0  0  0  0  0  0  0  0  0  0
    9.5902   46.5488  135.6377 C   0  0  0  0  0  0  0  0  0  0  0  0
    8.8584   47.4024  134.8195 C   0  0  0  0  0  0  0  0  0  0  0  0
    8.7199   47.1444  133.5058 C   0  0  0  0  0  0  0  0  0  0  0  0
   10.8977   44.6271  136.0215 O   0  0  0  0  0  0  0  0  0  0  0  0
   11.7230   43.6174  135.4329 C   0  0  0  0  0  0  0  0  0  0  0  0
    9.6651   46.9341  136.9983 O   0  0  0  0  0  0  0  0  0  0  0  0
    8.9763   48.0282  137.4813 C   0  0  0  0  0  0  0  0  0  0  0  0
    7.6347   50.2563  131.0866 O   0  0  0  0  0  0  0  0  0  0  0  0
    8.6005   51.0595  131.7105 C   0  0  0  0  0  0  0  0  0  0  0  0
    7.6862   50.1476  128.4054 O   0  0  0  0  0  0  0  0  0  0  0  0
    7.0749   51.3035  128.8438 C   0  0  0  0  0  0  0  0  0  0  0  0
    9.9322   40.1800  129.7082 O   0  0  0  0  0  0  0  0  0  0  0  0
   10.7263   39.8579  130.8147 C   0  0  0  0  0  0  0  0  0  0  0  0
   10.4600   41.2077  127.1369 O   0  0  0  0  0  0  0  0  0  0  0  0
   10.0727   39.8742  126.9442 C   0  0  0  0  0  0  0  0  0  0  0  0
  1  2  1  0  0  0
  2  3  2  0  0  0
  3  4  1  0  0  0
  4 27  1  0  0  0
 27 28  1  0  0  0
  4  5  2  0  0  0
  5 29  1  0  0  0
 29 30  1  0  0  0
  5  6  1  0  0  0
  2  7  1  0  0  0
  7 17  1  0  0  0
 17 18  2  0  0  0
 18 19  1  0  0  0
 19 23  1  0  0  0
 23 24  1  0  0  0
 19 20  2  0  0  0
 20 25  1  0  0  0
 25 26  1  0  0  0
 20 21  1  0  0  0
 21 22  2  0  0  0
  7  8  1  0  0  0
  8  9  1  0  0  0
  9 10  2  0  0  0
 10 11  1  0  0  0
 11 31  1  0  0  0
 31 32  1  0  0  0
 11 12  2  0  0  0
 12 33  1  0  0  0
 33 34  1  0  0  0
 12 13  1  0  0  0
 13 14  2  0  0  0
 14 15  1  0  0  0
 15 16  2  0  0  0
  6  1  2  0  0  0
 22 17  1  0  0  0
 14  9  1  0  0  0
 15  1  1  0  0  0
M  END
> <minimizedAffinity>
18.05832

> <CNNscore>
0.4151994884

> <CNNaffinity>
7.1922159195

> <CNN_VS>
2.9862043858

> <CNNaffinity_variance>
1.9203115702

$$$$
[H]c1c([H])c(C2([H])Oc3c([H])c(OC([H])([H])[H])c(OC([H])([H])[H])c([H])c3C(=O)c3c([H])c(OC([H])([H])[H])c(OC([H])([H])[H])c([H])c32)c([H])c(OC([H])([H])[H])c1OC([H])([H])[H]


 34 37  0  0  0  0  0  0  0  0999 V2000
   10.1749   48.2597  132.6586 C   0  0  0  0  0  0  0  0  0  0  0  0
   10.1111   46.9559  132.1502 C   0  0  0  0  0  0  0  0  0  0  0  0
   10.8072   45.9622  132.7436 C   0  0  0  0  0  0  0  0  0  0  0  0
   11.5863   46.2640  133.8634 C   0  0  0  0  0  0  0  0  0  0  0  0
   11.6647   47.5554  134.3839 C   0  0  0  0  0  0  0  0  0  0  0  0
   10.9326   48.5325  133.7420 C   0  0  0  0  0  0  0  0  0  0  0  0
    9.3847   46.5521  130.9641 C   0  0  0  0  0  0  0  0  0  0  0  0
    8.0520   47.0024  130.8532 O   0  0  0  0  0  0  0  0  0  0  0  0
    7.7177   48.3627  130.5741 C   0  0  0  0  0  0  0  0  0  0  0  0
    6.6915   48.5396  129.6918 C   0  0  0  0  0  0  0  0  0  0  0  0
    6.3273   49.8283  129.3484 C   0  0  0  0  0  0  0  0  0  0  0  0
    6.9745   50.9103  129.8840 C   0  0  0  0  0  0  0  0  0  0  0  0
    8.0188   50.7097  130.7921 C   0  0  0  0  0  0  0  0  0  0  0  0
    8.3874   49.4139  131.1358 C   0  0  0  0  0  0  0  0  0  0  0  0
    9.4794   49.4562  132.1327 C   0  0  0  0  0  0  0  0  0  0  0  0
    9.8424   50.5669  132.5645 O   0  0  0  0  0  0  0  0  0  0  0  0
    9.5633   45.2175  130.4063 C   0  0  0  0  0  0  0  0  0  0  0  0
    9.7470   44.1092  131.2160 C   0  0  0  0  0  0  0  0  0  0  0  0
    9.8852   42.8356  130.6159 C   0  0  0  0  0  0  0  0  0  0  0  0
    9.8340   42.7385  129.2700 C   0  0  0  0  0  0  0  0  0  0  0  0
    9.6517   43.8547  128.4609 C   0  0  0  0  0  0  0  0  0  0  0  0
    9.5172   45.0803  129.0006 C   0  0  0  0  0  0  0  0  0  0  0  0
   10.0704   41.6875  131.3651 O   0  0  0  0  0  0  0  0  0  0  0  0
   11.2331   41.6379  132.1973 C   0  0  0  0  0  0  0  0  0  0  0  0
    9.9569   41.5074  128.5811 O   0  0  0  0  0  0  0  0  0  0  0  0
   10.0021   41.4488  127.2030 C   0  0  0  0  0  0  0  0  0  0  0  0
   12.3304   45.3015  134.5241 O   0  0  0  0  0  0  0  0  0  0  0  0
   11.8264   43.9951  134.6043 C   0  0  0  0  0  0  0  0  0  0  0  0
   12.4503   47.8052  135.4833 O   0  0  0  0  0  0  0  0  0  0  0  0
   13.1365   48.9523  135.8229 C   0  0  0  0  0  0  0  0  0  0  0  0
    5.2594   49.9379  128.4237 O   0  0  0  0  0  0  0  0  0  0  0  0
    3.9486   49.7992  128.8939 C   0  0  0  0  0  0  0  0  0  0  0  0
    6.5809   52.1776  129.5118 O   0  0  0  0  0  0  0  0  0  0  0  0
    6.9321   52.8423  128.3286 C   0  0  0  0  0  0  0  0  0  0  0  0
  1  2  1  0  0  0
  2  3  2  0  0  0
  3  4  1  0  0  0
  4 27  1  0  0  0
 27 28  1  0  0  0
  4  5  2  0  0  0
  5 29  1  0  0  0
 29 30  1  0  0  0
  5  6  1  0  0  0
  2  7  1  0  0  0
  7 17  1  0  0  0
 17 18  2  0  0  0
 18 19  1  0  0  0
 19 23  1  0  0  0
 23 24  1  0  0  0
 19 20  2  0  0  0
 20 25  1  0  0  0
 25 26  1  0  0  0
 20 21  1  0  0  0
 21 22  2  0  0  0
  7  8  1  0  0  0
  8  9  1  0  0  0
  9 10  2  0  0  0
 10 11  1  0  0  0
 11 31  1  0  0  0
 31 32  1  0  0  0
 11 12  2  0  0  0
 12 33  1  0  0  0
 33 34  1  0  0  0
 12 13  1  0  0  0
 13 14  2  0  0  0
 14 15  1  0  0  0
 15 16  2  0  0  0
  6  1  2  0  0  0
 22 17  1  0  0  0
 14  9  1  0  0  0
 15  1  1  0  0  0
M  END
> <minimizedAffinity>
8.86084

> <CNNscore>
0.4132892489

> <CNNaffinity>
7.4322295189

> <CNN_VS>
3.0716605186

> <CNNaffinity_variance>
1.3411298990

$$$$
[H]c1c([H])c(C2([H])Oc3c([H])c(OC([H])([H])[H])c(OC([H])([H])[H])c([H])c3C(=O)c3c([H])c(OC([H])([H])[H])c(OC([H])([H])[H])c([H])c32)c([H])c(OC([H])([H])[H])c1OC([H])([H])[H]


 34 37  0  0  0  0  0  0  0  0999 V2000
   10.7244   46.0083  133.4272 C   0  0  0  0  0  0  0  0  0  0  0  0
   10.4100   45.2397  132.2990 C   0  0  0  0  0  0  0  0  0  0  0  0
   10.6192   43.9055  132.3081 C   0  0  0  0  0  0  0  0  0  0  0  0
   11.1538   43.3173  133.4572 C   0  0  0  0  0  0  0  0  0  0  0  0
   11.4751   44.0648  134.5898 C   0  0  0  0  0  0  0  0  0  0  0  0
   11.2396   45.4226  134.5290 C   0  0  0  0  0  0  0  0  0  0  0  0
    9.9108   45.7586  131.0424 C   0  0  0  0  0  0  0  0  0  0  0  0
    8.8365   46.6707  131.1156 O   0  0  0  0  0  0  0  0  0  0  0  0
    8.9917   48.0098  131.5874 C   0  0  0  0  0  0  0  0  0  0  0  0
    8.3100   48.9576  130.8804 C   0  0  0  0  0  0  0  0  0  0  0  0
    8.4324   50.2819  131.2581 C   0  0  0  0  0  0  0  0  0  0  0  0
    9.2151   50.6418  132.3231 C   0  0  0  0  0  0  0  0  0  0  0  0
    9.9004   49.6560  133.0402 C   0  0  0  0  0  0  0  0  0  0  0  0
    9.7798   48.3244  132.6592 C   0  0  0  0  0  0  0  0  0  0  0  0
   10.5583   47.4711  133.5834 C   0  0  0  0  0  0  0  0  0  0  0  0
   11.1119   48.0104  134.5605 O   0  0  0  0  0  0  0  0  0  0  0  0
    9.8237   44.8980  129.8695 C   0  0  0  0  0  0  0  0  0  0  0  0
   10.3480   45.2803  128.6461 C   0  0  0  0  0  0  0  0  0  0  0  0
   10.2585   44.3885  127.5517 C   0  0  0  0  0  0  0  0  0  0  0  0
    9.6636   43.1898  127.7326 C   0  0  0  0  0  0  0  0  0  0  0  0
    9.1364   42.8112  128.9624 C   0  0  0  0  0  0  0  0  0  0  0  0
    9.2053   43.6366  130.0233 C   0  0  0  0  0  0  0  0  0  0  0  0
   10.7618   44.7063  126.3029 O   0  0  0  0  0  0  0  0  0  0  0  0
   10.2913   45.9176  125.7042 C   0  0  0  0  0  0  0  0  0  0  0  0
    9.5324   42.2309  126.6989 O   0  0  0  0  0  0  0  0  0  0  0  0
   10.0101   40.9436  126.8387 C   0  0  0  0  0  0  0  0  0  0  0  0
   11.4000   41.9577  133.5423 O   0  0  0  0  0  0  0  0  0  0  0  0
   11.2868   41.1766  132.3829 C   0  0  0  0  0  0  0  0  0  0  0  0
   12.0055   43.4427  135.6943 O   0  0  0  0  0  0  0  0  0  0  0  0
   11.4125   43.1646  136.9080 C   0  0  0  0  0  0  0  0  0  0  0  0
    7.7030   51.2122  130.4773 O   0  0  0  0  0  0  0  0  0  0  0  0
    7.0390   50.7530  129.3341 C   0  0  0  0  0  0  0  0  0  0  0  0
    9.3113   51.9739  132.6635 O   0  0  0  0  0  0  0  0  0  0  0  0
    9.6133   52.4870  133.9326 C   0  0  0  0  0  0  0  0  0  0  0  0
  1  2  1  0  0  0
  2  3  2  0  0  0
  3  4  1  0  0  0
  4 27  1  0  0  0
 27 28  1  0  0  0
  4  5  2  0  0  0
  5 29  1  0  0  0
 29 30  1  0  0  0
  5  6  1  0  0  0
  2  7  1  0  0  0
  7 17  1  0  0  0
 17 18  2  0  0  0
 18 19  1  0  0  0
 19 23  1  0  0  0
 23 24  1  0  0  0
 19 20  2  0  0  0
 20 25  1  0  0  0
 25 26  1  0  0  0
 20 21  1  0  0  0
 21 22  2  0  0  0
  7  8  1  0  0  0
  8  9  1  0  0  0
  9 10  2  0  0  0
 10 11  1  0  0  0
 11 31  1  0  0  0
 31 32  1  0  0  0
 11 12  2  0  0  0
 12 33  1  0  0  0
 33 34  1  0  0  0
 12 13  1  0  0  0
 13 14  2  0  0  0
 14 15  1  0  0  0
 15 16  2  0  0  0
  6  1  2  0  0  0
 22 17  1  0  0  0
 14  9  1  0  0  0
 15  1  1  0  0  0
M  END
> <minimizedAffinity>
15.58483

> <CNNscore>
0.3856582344

> <CNNaffinity>
7.2810606956

> <CNN_VS>
2.8080010414

> <CNNaffinity_variance>
1.0454515219

$$$$
[H]c1nc([H])c(-c2c([H])c([H])c(N([H])c3nc(-c4c([H])c([H])c([H])c([H])c4[H])nc(N([H])C4([H])C([H])([H])C([H])([H])C([H])([H])C4([H])[H])n3)c([H])c2OC([H])([H])[H])o1


 34 38  0  0  0  0  0  0  0  0999 V2000
    8.4009   44.5488  130.1636 C   0  0  0  0  0  0  0  0  0  0  0  0
    7.8402   43.3335  130.4394 N   0  0  0  0  0  0  0  0  0  0  0  0
    8.2588   42.5620  131.4569 C   0  0  0  0  0  0  0  0  0  0  0  0
    9.2540   43.0290  132.1993 N   0  0  0  0  0  0  0  0  0  0  0  0
    9.8656   44.2239  131.9937 C   0  0  0  0  0  0  0  0  0  0  0  0
    9.3946   44.9410  130.9588 N   0  0  0  0  0  0  0  0  0  0  0  0
   10.9497   44.6860  132.8365 C   0  0  0  0  0  0  0  0  0  0  0  0
   11.8606   43.7785  133.3172 C   0  0  0  0  0  0  0  0  0  0  0  0
   12.9240   44.1855  134.1366 C   0  0  0  0  0  0  0  0  0  0  0  0
   13.0535   45.4988  134.4588 C   0  0  0  0  0  0  0  0  0  0  0  0
   12.1569   46.4216  133.9906 C   0  0  0  0  0  0  0  0  0  0  0  0
   11.1016   46.0086  133.1759 C   0  0  0  0  0  0  0  0  0  0  0  0
    7.8985   45.2953  129.0948 N   0  0  0  0  0  0  0  0  0  0  0  0
    7.6650   44.7092  128.2158 H   0  0  0  0  0  0  0  0  0  0  0  0
    8.4437   48.9241  129.5755 C   0  0  0  0  0  0  0  0  0  0  0  0
    8.5871   47.5459  129.5973 C   0  0  0  0  0  0  0  0  0  0  0  0
    7.6631   46.6759  129.0014 C   0  0  0  0  0  0  0  0  0  0  0  0
    6.6006   47.2903  128.3923 C   0  0  0  0  0  0  0  0  0  0  0  0
    6.4449   48.6536  128.3622 C   0  0  0  0  0  0  0  0  0  0  0  0
    7.3782   49.4928  128.9620 C   0  0  0  0  0  0  0  0  0  0  0  0
    7.1763   50.9380  128.9074 C   0  0  0  0  0  0  0  0  0  0  0  0
    6.8369   51.8247  129.8820 C   0  0  0  0  0  0  0  0  0  0  0  0
    6.7629   53.0844  129.3575 N   0  0  0  0  0  0  0  0  0  0  0  0
    7.0610   52.9372  128.0641 C   0  0  0  0  0  0  0  0  0  0  0  0
    7.3029   51.6769  127.8045 O   0  0  0  0  0  0  0  0  0  0  0  0
   10.1208   49.2564  131.3428 C   0  0  0  0  0  0  0  0  0  0  0  0
    9.4301   49.7182  130.2053 O   0  0  0  0  0  0  0  0  0  0  0  0
    7.6602   41.2932  131.7307 N   0  0  0  0  0  0  0  0  0  0  0  0
    7.6604   40.5791  130.9375 H   0  0  0  0  0  0  0  0  0  0  0  0
    7.0703   40.9036  132.9573 C   0  0  0  0  0  0  0  0  0  0  0  0
    5.7286   41.5269  133.2606 C   0  0  0  0  0  0  0  0  0  0  0  0
    5.4775   40.9518  134.6636 C   0  0  0  0  0  0  0  0  0  0  0  0
    6.8431   40.9773  135.3156 C   0  0  0  0  0  0  0  0  0  0  0  0
    7.8536   41.1827  134.1955 C   0  0  0  0  0  0  0  0  0  0  0  0
 26 27  1  0  0  0
 27 15  1  0  0  0
 15 16  2  0  0  0
 16 17  1  0  0  0
 17 13  1  0  0  0
 13  1  1  0  0  0
  1  2  2  0  0  0
  2  3  1  0  0  0
  3 28  1  0  0  0
 28 30  1  0  0  0
 30 31  1  0  0  0
 31 32  1  0  0  0
 32 33  1  0  0  0
 33 34  1  0  0  0
  3  4  2  0  0  0
  4  5  1  0  0  0
  5  6  2  0  0  0
  5  7  1  0  0  0
  7  8  2  0  0  0
  8  9  1  0  0  0
  9 10  2  0  0  0
 10 11  1  0  0  0
 11 12  2  0  0  0
 17 18  2  0  0  0
 18 19  1  0  0  0
 19 20  2  0  0  0
 20 21  1  0  0  0
 21 22  2  0  0  0
 22 23  1  0  0  0
 23 24  2  0  0  0
 24 25  1  0  0  0
 20 15  1  0  0  0
 25 21  1  0  0  0
  6  1  1  0  0  0
 12  7  1  0  0  0
 34 30  1  0  0  0
 13 14  1  0  0  0
 28 29  1  0  0  0
M  END
> <minimizedAffinity>
15.23044

> <CNNscore>
0.5229248405

> <CNNaffinity>
7.6764397621

> <CNN_VS>
4.0142011642

> <CNNaffinity_variance>
1.3350899220

$$$$
[H]c1nc([H])c(-c2c([H])c([H])c(N([H])c3nc(-c4c([H])c([H])c([H])c([H])c4[H])nc(N([H])C4([H])C([H])([H])C([H])([H])C([H])([H])C4([H])[H])n3)c([H])c2OC([H])([H])[H])o1


 34 38  0  0  0  0  0  0  0  0999 V2000
    9.7007   44.9010  130.9112 C   0  0  0  0  0  0  0  0  0  0  0  0
   10.8175   44.2764  130.4317 N   0  0  0  0  0  0  0  0  0  0  0  0
   11.7917   43.8238  131.2392 C   0  0  0  0  0  0  0  0  0  0  0  0
   11.6294   44.0071  132.5429 N   0  0  0  0  0  0  0  0  0  0  0  0
   10.5520   44.6168  133.1009 C   0  0  0  0  0  0  0  0  0  0  0  0
    9.6185   45.0435  132.2328 N   0  0  0  0  0  0  0  0  0  0  0  0
   10.4255   44.7909  134.5337 C   0  0  0  0  0  0  0  0  0  0  0  0
    9.7101   45.8566  135.0203 C   0  0  0  0  0  0  0  0  0  0  0  0
    9.5646   46.0607  136.4006 C   0  0  0  0  0  0  0  0  0  0  0  0
   10.1412   45.1892  137.2684 C   0  0  0  0  0  0  0  0  0  0  0  0
   10.8592   44.1190  136.8057 C   0  0  0  0  0  0  0  0  0  0  0  0
   10.9993   43.9230  135.4310 C   0  0  0  0  0  0  0  0  0  0  0  0
    8.7279   45.3306  130.0050 N   0  0  0  0  0  0  0  0  0  0  0  0
    8.2437   44.5299  129.4618 H   0  0  0  0  0  0  0  0  0  0  0  0
    8.7221   49.0312  129.9593 C   0  0  0  0  0  0  0  0  0  0  0  0
    9.0606   47.7071  130.1885 C   0  0  0  0  0  0  0  0  0  0  0  0
    8.3015   46.6332  129.7022 C   0  0  0  0  0  0  0  0  0  0  0  0
    7.1931   46.9894  128.9799 C   0  0  0  0  0  0  0  0  0  0  0  0
    6.8450   48.2959  128.7444 C   0  0  0  0  0  0  0  0  0  0  0  0
    7.6175   49.3416  129.2392 C   0  0  0  0  0  0  0  0  0  0  0  0
    7.2131   50.7179  128.9661 C   0  0  0  0  0  0  0  0  0  0  0  0
    6.5159   51.6060  129.7255 C   0  0  0  0  0  0  0  0  0  0  0  0
    6.3759   52.7850  129.0490 N   0  0  0  0  0  0  0  0  0  0  0  0
    6.9956   52.5886  127.8824 C   0  0  0  0  0  0  0  0  0  0  0  0
    7.4851   51.3750  127.8381 O   0  0  0  0  0  0  0  0  0  0  0  0
    9.4584   50.4280  131.8443 C   0  0  0  0  0  0  0  0  0  0  0  0
    9.5520   50.0449  130.4920 O   0  0  0  0  0  0  0  0  0  0  0  0
   12.9533   43.1726  130.7197 N   0  0  0  0  0  0  0  0  0  0  0  0
   13.0281   42.1201  130.8803 H   0  0  0  0  0  0  0  0  0  0  0  0
   14.0078   43.8000  130.0137 C   0  0  0  0  0  0  0  0  0  0  0  0
   13.5834   44.7279  128.9003 C   0  0  0  0  0  0  0  0  0  0  0  0
   14.9595   45.1184  128.3382 C   0  0  0  0  0  0  0  0  0  0  0  0
   15.7608   43.8370  128.4185 C   0  0  0  0  0  0  0  0  0  0  0  0
   14.9907   42.9021  129.3409 C   0  0  0  0  0  0  0  0  0  0  0  0
 26 27  1  0  0  0
 27 15  1  0  0  0
 15 16  2  0  0  0
 16 17  1  0  0  0
 17 13  1  0  0  0
 13  1  1  0  0  0
  1  2  2  0  0  0
  2  3  1  0  0  0
  3 28  1  0  0  0
 28 30  1  0  0  0
 30 31  1  0  0  0
 31 32  1  0  0  0
 32 33  1  0  0  0
 33 34  1  0  0  0
  3  4  2  0  0  0
  4  5  1  0  0  0
  5  6  2  0  0  0
  5  7  1  0  0  0
  7  8  2  0  0  0
  8  9  1  0  0  0
  9 10  2  0  0  0
 10 11  1  0  0  0
 11 12  2  0  0  0
 17 18  2  0  0  0
 18 19  1  0  0  0
 19 20  2  0  0  0
 20 21  1  0  0  0
 21 22  2  0  0  0
 22 23  1  0  0  0
 23 24  2  0  0  0
 24 25  1  0  0  0
 20 15  1  0  0  0
 25 21  1  0  0  0
  6  1  1  0  0  0
 12  7  1  0  0  0
 34 30  1  0  0  0
 13 14  1  0  0  0
 28 29  1  0  0  0
M  END
> <minimizedAffinity>
12.61684

> <CNNscore>
0.4844711125

> <CNNaffinity>
7.7383069992

> <CNN_VS>
3.7489862442

> <CNNaffinity_variance>
2.1656231880

$$$$
[H]c1nc([H])c(-c2c([H])c([H])c(N([H])c3nc(-c4c([H])c([H])c([H])c([H])c4[H])nc(N([H])C4([H])C([H])([H])C([H])([H])C([H])([H])C4([H])[H])n3)c([H])c2OC([H])([H])[H])o1


 34 38  0  0  0  0  0  0  0  0999 V2000
    7.8511   45.7219  131.0308 C   0  0  0  0  0  0  0  0  0  0  0  0
    8.6044   44.8252  130.3266 N   0  0  0  0  0  0  0  0  0  0  0  0
    9.5949   44.1155  130.8934 C   0  0  0  0  0  0  0  0  0  0  0  0
    9.8211   44.3186  132.1846 N   0  0  0  0  0  0  0  0  0  0  0  0
    9.1202   45.1892  132.9558 C   0  0  0  0  0  0  0  0  0  0  0  0
    8.1455   45.8637  132.3219 N   0  0  0  0  0  0  0  0  0  0  0  0
    9.4097   45.3720  134.3637 C   0  0  0  0  0  0  0  0  0  0  0  0
   10.1486   44.4235  135.0261 C   0  0  0  0  0  0  0  0  0  0  0  0
   10.4499   44.5631  136.3891 C   0  0  0  0  0  0  0  0  0  0  0  0
   10.0028   45.6545  137.0630 C   0  0  0  0  0  0  0  0  0  0  0  0
    9.2642   46.6133  136.4226 C   0  0  0  0  0  0  0  0  0  0  0  0
    8.9688   46.4670  135.0664 C   0  0  0  0  0  0  0  0  0  0  0  0
    6.8309   46.4104  130.3695 N   0  0  0  0  0  0  0  0  0  0  0  0
    5.9141   45.8463  130.2600 H   0  0  0  0  0  0  0  0  0  0  0  0
    7.8000   49.9534  129.9171 C   0  0  0  0  0  0  0  0  0  0  0  0
    7.7272   48.6439  130.3648 C   0  0  0  0  0  0  0  0  0  0  0  0
    6.8303   47.7071  129.8320 C   0  0  0  0  0  0  0  0  0  0  0  0
    6.0251   48.1826  128.8306 C   0  0  0  0  0  0  0  0  0  0  0  0
    6.0856   49.4763  128.3764 C   0  0  0  0  0  0  0  0  0  0  0  0
    6.9860   50.3845  128.9237 C   0  0  0  0  0  0  0  0  0  0  0  0
    7.0192   51.7518  128.4121 C   0  0  0  0  0  0  0  0  0  0  0  0
    6.7478   52.9360  129.0247 C   0  0  0  0  0  0  0  0  0  0  0  0
    6.9149   53.9645  128.1405 N   0  0  0  0  0  0  0  0  0  0  0  0
    7.2875   53.3802  126.9989 C   0  0  0  0  0  0  0  0  0  0  0  0
    7.3475   52.0826  127.1628 O   0  0  0  0  0  0  0  0  0  0  0  0
    9.4688   50.4340  131.6579 C   0  0  0  0  0  0  0  0  0  0  0  0
    8.7384   50.8240  130.5183 O   0  0  0  0  0  0  0  0  0  0  0  0
   10.3728   43.1816  130.1411 N   0  0  0  0  0  0  0  0  0  0  0  0
    9.9222   42.2369  129.9323 H   0  0  0  0  0  0  0  0  0  0  0  0
   11.6828   43.4006  129.6510 C   0  0  0  0  0  0  0  0  0  0  0  0
   12.6778   43.9171  130.6630 C   0  0  0  0  0  0  0  0  0  0  0  0
   13.9044   44.1106  129.7574 C   0  0  0  0  0  0  0  0  0  0  0  0
   13.3207   44.6361  128.4637 C   0  0  0  0  0  0  0  0  0  0  0  0
   11.8233   44.3676  128.5241 C   0  0  0  0  0  0  0  0  0  0  0  0
 26 27  1  0  0  0
 27 15  1  0  0  0
 15 16  2  0  0  0
 16 17  1  0  0  0
 17 13  1  0  0  0
 13  1  1  0  0  0
  1  2  2  0  0  0
  2  3  1  0  0  0
  3 28  1  0  0  0
 28 30  1  0  0  0
 30 31  1  0  0  0
 31 32  1  0  0  0
 32 33  1  0  0  0
 33 34  1  0  0  0
  3  4  2  0  0  0
  4  5  1  0  0  0
  5  6  2  0  0  0
  5  7  1  0  0  0
  7  8  2  0  0  0
  8  9  1  0  0  0
  9 10  2  0  0  0
 10 11  1  0  0  0
 11 12  2  0  0  0
 17 18  2  0  0  0
 18 19  1  0  0  0
 19 20  2  0  0  0
 20 21  1  0  0  0
 21 22  2  0  0  0
 22 23  1  0  0  0
 23 24  2  0  0  0
 24 25  1  0  0  0
 20 15  1  0  0  0
 25 21  1  0  0  0
  6  1  1  0  0  0
 12  7  1  0  0  0
 34 30  1  0  0  0
 13 14  1  0  0  0
 28 29  1  0  0  0
M  END
> <minimizedAffinity>
7.03335

> <CNNscore>
0.4105862081

> <CNNaffinity>
7.6512947083

> <CNN_VS>
3.1415159702

> <CNNaffinity_variance>
1.7542644739

$$$$
[H]c1nc([H])c(-c2c([H])c([H])c(N([H])c3nc(-c4c([H])c([H])c([H])c([H])c4[H])nc(N([H])C4([H])C([H])([H])C([H])([H])C([H])([H])C4([H])[H])n3)c([H])c2OC([H])([H])[H])o1


 34 38  0  0  0  0  0  0  0  0999 V2000
    8.4334   46.8779  132.0410 C   0  0  0  0  0  0  0  0  0  0  0  0
    8.5844   46.0678  133.1311 N   0  0  0  0  0  0  0  0  0  0  0  0
    9.1052   44.8322  133.0430 C   0  0  0  0  0  0  0  0  0  0  0  0
    9.4751   44.4171  131.8386 N   0  0  0  0  0  0  0  0  0  0  0  0
    9.3598   45.1574  130.7061 C   0  0  0  0  0  0  0  0  0  0  0  0
    8.8308   46.3822  130.8705 N   0  0  0  0  0  0  0  0  0  0  0  0
    9.7806   44.6541  129.4142 C   0  0  0  0  0  0  0  0  0  0  0  0
    9.3694   43.4075  129.0126 C   0  0  0  0  0  0  0  0  0  0  0  0
    9.7554   42.8839  127.7697 C   0  0  0  0  0  0  0  0  0  0  0  0
   10.5486   43.6231  126.9514 C   0  0  0  0  0  0  0  0  0  0  0  0
   10.9706   44.8691  127.3312 C   0  0  0  0  0  0  0  0  0  0  0  0
   10.5822   45.3829  128.5694 C   0  0  0  0  0  0  0  0  0  0  0  0
    7.8951   48.1547  132.2201 N   0  0  0  0  0  0  0  0  0  0  0  0
    7.5038   48.3355  133.2125 H   0  0  0  0  0  0  0  0  0  0  0  0
    6.3714   50.3776  129.6837 C   0  0  0  0  0  0  0  0  0  0  0  0
    6.5787   49.3730  130.6155 C   0  0  0  0  0  0  0  0  0  0  0  0
    7.7881   49.2156  131.3073 C   0  0  0  0  0  0  0  0  0  0  0  0
    8.7569   50.1322  130.9934 C   0  0  0  0  0  0  0  0  0  0  0  0
    8.5665   51.1325  130.0733 C   0  0  0  0  0  0  0  0  0  0  0  0
    7.3555   51.2650  129.4018 C   0  0  0  0  0  0  0  0  0  0  0  0
    7.1930   52.3431  128.4305 C   0  0  0  0  0  0  0  0  0  0  0  0
    7.2459   52.3291  127.0710 C   0  0  0  0  0  0  0  0  0  0  0  0
    7.0321   53.5885  126.5856 N   0  0  0  0  0  0  0  0  0  0  0  0
    6.8520   54.3491  127.6684 C   0  0  0  0  0  0  0  0  0  0  0  0
    6.9471   53.6147  128.7481 O   0  0  0  0  0  0  0  0  0  0  0  0
    4.2258   49.3622  129.0421 C   0  0  0  0  0  0  0  0  0  0  0  0
    5.1156   50.4542  129.0377 O   0  0  0  0  0  0  0  0  0  0  0  0
    9.2557   43.9986  134.1944 N   0  0  0  0  0  0  0  0  0  0  0  0
    8.3620   43.7156  134.7045 H   0  0  0  0  0  0  0  0  0  0  0  0
   10.4819   43.5180  134.7137 C   0  0  0  0  0  0  0  0  0  0  0  0
   10.7831   43.9122  136.1402 C   0  0  0  0  0  0  0  0  0  0  0  0
   12.1862   43.3045  136.2951 C   0  0  0  0  0  0  0  0  0  0  0  0
   12.8399   43.5547  134.9532 C   0  0  0  0  0  0  0  0  0  0  0  0
   11.7209   43.9230  133.9888 C   0  0  0  0  0  0  0  0  0  0  0  0
 26 27  1  0  0  0
 27 15  1  0  0  0
 15 16  2  0  0  0
 16 17  1  0  0  0
 17 13  1  0  0  0
 13  1  1  0  0  0
  1  2  2  0  0  0
  2  3  1  0  0  0
  3 28  1  0  0  0
 28 30  1  0  0  0
 30 31  1  0  0  0
 31 32  1  0  0  0
 32 33  1  0  0  0
 33 34  1  0  0  0
  3  4  2  0  0  0
  4  5  1  0  0  0
  5  6  2  0  0  0
  5  7  1  0  0  0
  7  8  2  0  0  0
  8  9  1  0  0  0
  9 10  2  0  0  0
 10 11  1  0  0  0
 11 12  2  0  0  0
 17 18  2  0  0  0
 18 19  1  0  0  0
 19 20  2  0  0  0
 20 21  1  0  0  0
 21 22  2  0  0  0
 22 23  1  0  0  0
 23 24  2  0  0  0
 24 25  1  0  0  0
 20 15  1  0  0  0
 25 21  1  0  0  0
  6  1  1  0  0  0
 12  7  1  0  0  0
 34 30  1  0  0  0
 13 14  1  0  0  0
 28 29  1  0  0  0
M  END
> <minimizedAffinity>
11.36305

> <CNNscore>
0.3903987110

> <CNNaffinity>
7.4186859131

> <CNN_VS>
2.8962454796

> <CNNaffinity_variance>
1.0894682407

$$$$
[H]c1nc([H])c(-c2c([H])c([H])c(N([H])c3nc(-c4c([H])c([H])c([H])c([H])c4[H])nc(N([H])C4([H])C([H])([H])C([H])([H])C([H])([H])C4([H])[H])n3)c([H])c2OC([H])([H])[H])o1


 34 38  0  0  0  0  0  0  0  0999 V2000
    8.2997   44.8141  130.7560 C   0  0  0  0  0  0  0  0  0  0  0  0
    8.1517   43.9787  131.8273 N   0  0  0  0  0  0  0  0  0  0  0  0
    9.1711   43.2573  132.3235 C   0  0  0  0  0  0  0  0  0  0  0  0
   10.3489   43.3859  131.7269 N   0  0  0  0  0  0  0  0  0  0  0  0
   10.5810   44.1923  130.6593 C   0  0  0  0  0  0  0  0  0  0  0  0
    9.5158   44.8831  130.2175 N   0  0  0  0  0  0  0  0  0  0  0  0
   11.8894   44.2951  130.0455 C   0  0  0  0  0  0  0  0  0  0  0  0
   13.0095   44.1047  130.8157 C   0  0  0  0  0  0  0  0  0  0  0  0
   14.2942   44.1963  130.2595 C   0  0  0  0  0  0  0  0  0  0  0  0
   14.4305   44.4779  128.9377 C   0  0  0  0  0  0  0  0  0  0  0  0
   13.3273   44.6716  128.1502 C   0  0  0  0  0  0  0  0  0  0  0  0
   12.0527   44.5787  128.7111 C   0  0  0  0  0  0  0  0  0  0  0  0
    7.1921   45.5393  130.3094 N   0  0  0  0  0  0  0  0  0  0  0  0
    6.2750   44.9666  130.2672 H   0  0  0  0  0  0  0  0  0  0  0  0
    8.1212   49.1077  129.9939 C   0  0  0  0  0  0  0  0  0  0  0  0
    8.1171   47.7610  130.3209 C   0  0  0  0  0  0  0  0  0  0  0  0
    7.1048   46.8821  129.9101 C   0  0  0  0  0  0  0  0  0  0  0  0
    6.1130   47.4542  129.1577 C   0  0  0  0  0  0  0  0  0  0  0  0
    6.1033   48.7859  128.8256 C   0  0  0  0  0  0  0  0  0  0  0  0
    7.1215   49.6349  129.2470 C   0  0  0  0  0  0  0  0  0  0  0  0
    7.0746   51.0454  128.8721 C   0  0  0  0  0  0  0  0  0  0  0  0
    6.7978   52.1525  129.6131 C   0  0  0  0  0  0  0  0  0  0  0  0
    6.8742   53.2677  128.8269 N   0  0  0  0  0  0  0  0  0  0  0  0
    7.1983   52.8125  127.6140 C   0  0  0  0  0  0  0  0  0  0  0  0
    7.3149   51.5088  127.6451 O   0  0  0  0  0  0  0  0  0  0  0  0
    9.7857   49.6831  131.7100 C   0  0  0  0  0  0  0  0  0  0  0  0
    9.1874   49.9140  130.4557 O   0  0  0  0  0  0  0  0  0  0  0  0
    8.9978   42.3884  133.4452 N   0  0  0  0  0  0  0  0  0  0  0  0
    9.8846   42.0255  133.9153 H   0  0  0  0  0  0  0  0  0  0  0  0
    7.7574   41.9699  133.9842 C   0  0  0  0  0  0  0  0  0  0  0  0
    7.8184   40.7737  134.9041 C   0  0  0  0  0  0  0  0  0  0  0  0
    6.3209   40.5799  135.1907 C   0  0  0  0  0  0  0  0  0  0  0  0
    5.6563   40.8790  133.8643 C   0  0  0  0  0  0  0  0  0  0  0  0
    6.6988   41.5834  133.0070 C   0  0  0  0  0  0  0  0  0  0  0  0
 26 27  1  0  0  0
 27 15  1  0  0  0
 15 16  2  0  0  0
 16 17  1  0  0  0
 17 13  1  0  0  0
 13  1  1  0  0  0
  1  2  2  0  0  0
  2  3  1  0  0  0
  3 28  1  0  0  0
 28 30  1  0  0  0
 30 31  1  0  0  0
 31 32  1  0  0  0
 32 33  1  0  0  0
 33 34  1  0  0  0
  3  4  2  0  0  0
  4  5  1  0  0  0
  5  6  2  0  0  0
  5  7  1  0  0  0
  7  8  2  0  0  0
  8  9  1  0  0  0
  9 10  2  0  0  0
 10 11  1  0  0  0
 11 12  2  0  0  0
 17 18  2  0  0  0
 18 19  1  0  0  0
 19 20  2  0  0  0
 20 21  1  0  0  0
 21 22  2  0  0  0
 22 23  1  0  0  0
 23 24  2  0  0  0
 24 25  1  0  0  0
 20 15  1  0  0  0
 25 21  1  0  0  0
  6  1  1  0  0  0
 12  7  1  0  0  0
 34 30  1  0  0  0
 13 14  1  0  0  0
 28 29  1  0  0  0
M  END
> <minimizedAffinity>
11.23047

> <CNNscore>
0.3812621236

> <CNNaffinity>
7.4828619957

> <CNN_VS>
2.8529317379

> <CNNaffinity_variance>
1.8722898960

$$$$
[H]c1nc([H])c(-c2c([H])c([H])c(N([H])c3nc(-c4c([H])c([H])c([H])c([H])c4[H])nc(N([H])C4([H])C([H])([H])C([H])([H])C([H])([H])C4([H])[H])n3)c([H])c2OC([H])([H])[H])o1


 34 38  0  0  0  0  0  0  0  0999 V2000
    7.8529   48.0924  129.1236 C   0  0  0  0  0  0  0  0  0  0  0  0
    7.2907   49.1191  128.4186 N   0  0  0  0  0  0  0  0  0  0  0  0
    7.3549   50.3961  128.8321 C   0  0  0  0  0  0  0  0  0  0  0  0
    7.9951   50.6311  129.9700 N   0  0  0  0  0  0  0  0  0  0  0  0
    8.5807   49.6703  130.7302 C   0  0  0  0  0  0  0  0  0  0  0  0
    8.4764   48.4172  130.2547 N   0  0  0  0  0  0  0  0  0  0  0  0
    9.2683   49.9831  131.9665 C   0  0  0  0  0  0  0  0  0  0  0  0
    9.2822   51.2793  132.4180 C   0  0  0  0  0  0  0  0  0  0  0  0
    9.9372   51.6234  133.6099 C   0  0  0  0  0  0  0  0  0  0  0  0
   10.5675   50.6576  134.3277 C   0  0  0  0  0  0  0  0  0  0  0  0
   10.5666   49.3580  133.8966 C   0  0  0  0  0  0  0  0  0  0  0  0
    9.9125   49.0239  132.7097 C   0  0  0  0  0  0  0  0  0  0  0  0
    7.7526   46.7938  128.6179 N   0  0  0  0  0  0  0  0  0  0  0  0
    7.1073   46.7032  127.7541 H   0  0  0  0  0  0  0  0  0  0  0  0
    8.7131   44.0876  130.9524 C   0  0  0  0  0  0  0  0  0  0  0  0
    8.1525   45.2293  130.4023 C   0  0  0  0  0  0  0  0  0  0  0  0
    8.3572   45.6099  129.0685 C   0  0  0  0  0  0  0  0  0  0  0  0
    9.1572   44.7666  128.3432 C   0  0  0  0  0  0  0  0  0  0  0  0
    9.7192   43.6325  128.8737 C   0  0  0  0  0  0  0  0  0  0  0  0
    9.4985   43.2791  130.2009 C   0  0  0  0  0  0  0  0  0  0  0  0
   10.1144   42.0642  130.7271 C   0  0  0  0  0  0  0  0  0  0  0  0
   10.0257   40.7717  130.3111 C   0  0  0  0  0  0  0  0  0  0  0  0
   10.7833   39.9715  131.1193 N   0  0  0  0  0  0  0  0  0  0  0  0
   11.3218   40.8000  132.0175 C   0  0  0  0  0  0  0  0  0  0  0  0
   10.9269   42.0263  131.7838 O   0  0  0  0  0  0  0  0  0  0  0  0
    8.9744   44.5810  133.3471 C   0  0  0  0  0  0  0  0  0  0  0  0
    8.4476   43.7881  132.3088 O   0  0  0  0  0  0  0  0  0  0  0  0
    6.7608   51.4576  128.0814 N   0  0  0  0  0  0  0  0  0  0  0  0
    5.6946   51.4808  128.0405 H   0  0  0  0  0  0  0  0  0  0  0  0
    7.4612   52.4761  127.3913 C   0  0  0  0  0  0  0  0  0  0  0  0
    6.9998   53.8867  127.6706 C   0  0  0  0  0  0  0  0  0  0  0  0
    7.9041   54.6614  126.6989 C   0  0  0  0  0  0  0  0  0  0  0  0
    7.9618   53.7757  125.4731 C   0  0  0  0  0  0  0  0  0  0  0  0
    7.4430   52.4099  125.9013 C   0  0  0  0  0  0  0  0  0  0  0  0
 26 27  1  0  0  0
 27 15  1  0  0  0
 15 16  2  0  0  0
 16 17  1  0  0  0
 17 13  1  0  0  0
 13  1  1  0  0  0
  1  2  2  0  0  0
  2  3  1  0  0  0
  3 28  1  0  0  0
 28 30  1  0  0  0
 30 31  1  0  0  0
 31 32  1  0  0  0
 32 33  1  0  0  0
 33 34  1  0  0  0
  3  4  2  0  0  0
  4  5  1  0  0  0
  5  6  2  0  0  0
  5  7  1  0  0  0
  7  8  2  0  0  0
  8  9  1  0  0  0
  9 10  2  0  0  0
 10 11  1  0  0  0
 11 12  2  0  0  0
 17 18  2  0  0  0
 18 19  1  0  0  0
 19 20  2  0  0  0
 20 21  1  0  0  0
 21 22  2  0  0  0
 22 23  1  0  0  0
 23 24  2  0  0  0
 24 25  1  0  0  0
 20 15  1  0  0  0
 25 21  1  0  0  0
  6  1  1  0  0  0
 12  7  1  0  0  0
 34 30  1  0  0  0
 13 14  1  0  0  0
 28 29  1  0  0  0
M  END
> <minimizedAffinity>
14.06890

> <CNNscore>
0.3751327097

> <CNNaffinity>
7.1924047470

> <CNN_VS>
2.6981062889

> <CNNaffinity_variance>
0.6360462904

$$$$
[H]c1nc([H])c(-c2c([H])c([H])c(N([H])c3nc(-c4c([H])c([H])c([H])c([H])c4[H])nc(N([H])C4([H])C([H])([H])C([H])([H])C([H])([H])C4([H])[H])n3)c([H])c2OC([H])([H])[H])o1


 34 38  0  0  0  0  0  0  0  0999 V2000
    8.9129   45.0809  131.4362 C   0  0  0  0  0  0  0  0  0  0  0  0
    9.1707   43.7391  131.4592 N   0  0  0  0  0  0  0  0  0  0  0  0
   10.1473   43.2068  132.2133 C   0  0  0  0  0  0  0  0  0  0  0  0
   10.8667   44.0439  132.9491 N   0  0  0  0  0  0  0  0  0  0  0  0
   10.6764   45.3879  132.9841 C   0  0  0  0  0  0  0  0  0  0  0  0
    9.6827   45.8490  132.2050 N   0  0  0  0  0  0  0  0  0  0  0  0
   11.4924   46.2573  133.8074 C   0  0  0  0  0  0  0  0  0  0  0  0
   10.9485   47.4143  134.3069 C   0  0  0  0  0  0  0  0  0  0  0  0
   11.7054   48.2829  135.1073 C   0  0  0  0  0  0  0  0  0  0  0  0
   12.9969   47.9730  135.3919 C   0  0  0  0  0  0  0  0  0  0  0  0
   13.5603   46.8241  134.9045 C   0  0  0  0  0  0  0  0  0  0  0  0
   12.8006   45.9652  134.1089 C   0  0  0  0  0  0  0  0  0  0  0  0
    7.8704   45.5527  130.6346 N   0  0  0  0  0  0  0  0  0  0  0  0
    7.1483   44.7966  130.3561 H   0  0  0  0  0  0  0  0  0  0  0  0
    8.2312   49.2179  130.2701 C   0  0  0  0  0  0  0  0  0  0  0  0
    8.3919   47.9019  130.6735 C   0  0  0  0  0  0  0  0  0  0  0  0
    7.6353   46.8468  130.1441 C   0  0  0  0  0  0  0  0  0  0  0  0
    6.7192   47.2128  129.1934 C   0  0  0  0  0  0  0  0  0  0  0  0
    6.5486   48.5114  128.7835 C   0  0  0  0  0  0  0  0  0  0  0  0
    7.3139   49.5385  129.3262 C   0  0  0  0  0  0  0  0  0  0  0  0
    7.1019   50.9069  128.8627 C   0  0  0  0  0  0  0  0  0  0  0  0
    6.5845   51.9909  129.5019 C   0  0  0  0  0  0  0  0  0  0  0  0
    6.5831   53.0681  128.6609 N   0  0  0  0  0  0  0  0  0  0  0  0
    7.1037   52.6137  127.5182 C   0  0  0  0  0  0  0  0  0  0  0  0
    7.4067   51.3459  127.6410 O   0  0  0  0  0  0  0  0  0  0  0  0
    9.6457   50.0073  132.1201 C   0  0  0  0  0  0  0  0  0  0  0  0
    9.0425   50.2126  130.8637 O   0  0  0  0  0  0  0  0  0  0  0  0
   10.4028   41.8004  132.2247 N   0  0  0  0  0  0  0  0  0  0  0  0
   10.4752   41.3315  133.1808 H   0  0  0  0  0  0  0  0  0  0  0  0
   10.5669   40.9796  131.0830 C   0  0  0  0  0  0  0  0  0  0  0  0
    9.3661   40.8851  130.1720 C   0  0  0  0  0  0  0  0  0  0  0  0
    9.8888   39.8681  129.1451 C   0  0  0  0  0  0  0  0  0  0  0  0
   10.6810   38.8849  129.9794 C   0  0  0  0  0  0  0  0  0  0  0  0
   10.9094   39.5491  131.3302 C   0  0  0  0  0  0  0  0  0  0  0  0
 26 27  1  0  0  0
 27 15  1  0  0  0
 15 16  2  0  0  0
 16 17  1  0  0  0
 17 13  1  0  0  0
 13  1  1  0  0  0
  1  2  2  0  0  0
  2  3  1  0  0  0
  3 28  1  0  0  0
 28 30  1  0  0  0
 30 31  1  0  0  0
 31 32  1  0  0  0
 32 33  1  0  0  0
 33 34  1  0  0  0
  3  4  2  0  0  0
  4  5  1  0  0  0
  5  6  2  0  0  0
  5  7  1  0  0  0
  7  8  2  0  0  0
  8  9  1  0  0  0
  9 10  2  0  0  0
 10 11  1  0  0  0
 11 12  2  0  0  0
 17 18  2  0  0  0
 18 19  1  0  0  0
 19 20  2  0  0  0
 20 21  1  0  0  0
 21 22  2  0  0  0
 22 23  1  0  0  0
 23 24  2  0  0  0
 24 25  1  0  0  0
 20 15  1  0  0  0
 25 21  1  0  0  0
  6  1  1  0  0  0
 12  7  1  0  0  0
 34 30  1  0  0  0
 13 14  1  0  0  0
 28 29  1  0  0  0
M  END
> <minimizedAffinity>
19.13280

> <CNNscore>
0.3726535141

> <CNNaffinity>
7.5406622887

> <CNN_VS>
2.8100543022

> <CNNaffinity_variance>
2.0425238609

$$$$
[H]c1nc([H])c(-c2c([H])c([H])c(N([H])c3nc(-c4c([H])c([H])c([H])c([H])c4[H])nc(N([H])C4([H])C([H])([H])C([H])([H])C([H])([H])C4([H])[H])n3)c([H])c2OC([H])([H])[H])o1


 34 38  0  0  0  0  0  0  0  0999 V2000
    8.2559   45.9040  130.7393 C   0  0  0  0  0  0  0  0  0  0  0  0
    8.0481   45.3840  131.9858 N   0  0  0  0  0  0  0  0  0  0  0  0
    8.9737   44.6451  132.6208 C   0  0  0  0  0  0  0  0  0  0  0  0
   10.1183   44.4334  131.9844 N   0  0  0  0  0  0  0  0  0  0  0  0
   10.4048   44.9129  130.7467 C   0  0  0  0  0  0  0  0  0  0  0  0
    9.4327   45.6430  130.1731 N   0  0  0  0  0  0  0  0  0  0  0  0
   11.6732   44.6512  130.0971 C   0  0  0  0  0  0  0  0  0  0  0  0
   12.8043   44.5142  130.8627 C   0  0  0  0  0  0  0  0  0  0  0  0
   14.0514   44.2609  130.2721 C   0  0  0  0  0  0  0  0  0  0  0  0
   14.1397   44.1496  128.9212 C   0  0  0  0  0  0  0  0  0  0  0  0
   13.0246   44.2825  128.1378 C   0  0  0  0  0  0  0  0  0  0  0  0
   11.7876   44.5344  128.7330 C   0  0  0  0  0  0  0  0  0  0  0  0
    7.2469   46.6728  130.1536 N   0  0  0  0  0  0  0  0  0  0  0  0
    6.3032   46.1554  130.0429 H   0  0  0  0  0  0  0  0  0  0  0  0
    5.9952   49.9622  129.0090 C   0  0  0  0  0  0  0  0  0  0  0  0
    6.0697   48.6593  129.4754 C   0  0  0  0  0  0  0  0  0  0  0  0
    7.2868   47.9979  129.6922 C   0  0  0  0  0  0  0  0  0  0  0  0
    8.4048   48.7369  129.4073 C   0  0  0  0  0  0  0  0  0  0  0  0
    8.3472   50.0279  128.9450 C   0  0  0  0  0  0  0  0  0  0  0  0
    7.1249   50.6594  128.7394 C   0  0  0  0  0  0  0  0  0  0  0  0
    7.1066   52.0340  128.2469 C   0  0  0  0  0  0  0  0  0  0  0  0
    6.7952   53.1990  128.8771 C   0  0  0  0  0  0  0  0  0  0  0  0
    6.9213   54.2450  128.0068 N   0  0  0  0  0  0  0  0  0  0  0  0
    7.3100   53.6906  126.8558 C   0  0  0  0  0  0  0  0  0  0  0  0
    7.4175   52.3938  127.0011 O   0  0  0  0  0  0  0  0  0  0  0  0
    3.5448   49.7730  128.9293 C   0  0  0  0  0  0  0  0  0  0  0  0
    4.7194   50.5432  128.8221 O   0  0  0  0  0  0  0  0  0  0  0  0
    8.7390   44.1090  133.9249 N   0  0  0  0  0  0  0  0  0  0  0  0
    8.2829   43.1453  133.9749 H   0  0  0  0  0  0  0  0  0  0  0  0
    9.0579   44.7427  135.1500 C   0  0  0  0  0  0  0  0  0  0  0  0
    9.1503   46.2492  135.0983 C   0  0  0  0  0  0  0  0  0  0  0  0
    9.5924   46.5398  136.5412 C   0  0  0  0  0  0  0  0  0  0  0  0
   10.5568   45.4173  136.8580 C   0  0  0  0  0  0  0  0  0  0  0  0
   10.3477   44.3528  135.7897 C   0  0  0  0  0  0  0  0  0  0  0  0
 26 27  1  0  0  0
 27 15  1  0  0  0
 15 16  2  0  0  0
 16 17  1  0  0  0
 17 13  1  0  0  0
 13  1  1  0  0  0
  1  2  2  0  0  0
  2  3  1  0  0  0
  3 28  1  0  0  0
 28 30  1  0  0  0
 30 31  1  0  0  0
 31 32  1  0  0  0
 32 33  1  0  0  0
 33 34  1  0  0  0
  3  4  2  0  0  0
  4  5  1  0  0  0
  5  6  2  0  0  0
  5  7  1  0  0  0
  7  8  2  0  0  0
  8  9  1  0  0  0
  9 10  2  0  0  0
 10 11  1  0  0  0
 11 12  2  0  0  0
 17 18  2  0  0  0
 18 19  1  0  0  0
 19 20  2  0  0  0
 20 21  1  0  0  0
 21 22  2  0  0  0
 22 23  1  0  0  0
 23 24  2  0  0  0
 24 25  1  0  0  0
 20 15  1  0  0  0
 25 21  1  0  0  0
  6  1  1  0  0  0
 12  7  1  0  0  0
 34 30  1  0  0  0
 13 14  1  0  0  0
 28 29  1  0  0  0
M  END
> <minimizedAffinity>
12.29748

> <CNNscore>
0.3696031570

> <CNNaffinity>
7.3592185974

> <CNN_VS>
2.7199904919

> <CNNaffinity_variance>
1.6314117908

$$$$
[H]c1nc([H])c(-c2c([H])c([H])c(N([H])c3nc(-c4c([H])c([H])c([H])c([H])c4[H])nc(N([H])C4([H])C([H])([H])C([H])([H])C([H])([H])C4([H])[H])n3)c([H])c2OC([H])([H])[H])o1


 34 38  0  0  0  0  0  0  0  0999 V2000
    8.7438   47.1275  132.4523 C   0  0  0  0  0  0  0  0  0  0  0  0
    8.2631   46.4063  131.3957 N   0  0  0  0  0  0  0  0  0  0  0  0
    8.6081   45.1251  131.1825 C   0  0  0  0  0  0  0  0  0  0  0  0
    9.4472   44.5733  132.0491 N   0  0  0  0  0  0  0  0  0  0  0  0
    9.9703   45.2183  133.1235 C   0  0  0  0  0  0  0  0  0  0  0  0
    9.5810   46.4961  133.2733 N   0  0  0  0  0  0  0  0  0  0  0  0
   10.8840   44.5664  134.0398 C   0  0  0  0  0  0  0  0  0  0  0  0
   12.2122   44.4682  133.7077 C   0  0  0  0  0  0  0  0  0  0  0  0
   13.1287   43.8441  134.5671 C   0  0  0  0  0  0  0  0  0  0  0  0
   12.6937   43.3292  135.7464 C   0  0  0  0  0  0  0  0  0  0  0  0
   11.3733   43.4159  136.0985 C   0  0  0  0  0  0  0  0  0  0  0  0
   10.4678   44.0383  135.2379 C   0  0  0  0  0  0  0  0  0  0  0  0
    8.3253   48.4512  132.6101 N   0  0  0  0  0  0  0  0  0  0  0  0
    8.1524   48.7418  133.6378 H   0  0  0  0  0  0  0  0  0  0  0  0
    6.8280   50.0906  129.6492 C   0  0  0  0  0  0  0  0  0  0  0  0
    7.1232   49.1905  130.6606 C   0  0  0  0  0  0  0  0  0  0  0  0
    8.0969   49.4382  131.6386 C   0  0  0  0  0  0  0  0  0  0  0  0
    8.7405   50.6421  131.5213 C   0  0  0  0  0  0  0  0  0  0  0  0
    8.4592   51.5438  130.5256 C   0  0  0  0  0  0  0  0  0  0  0  0
    7.4873   51.2714  129.5684 C   0  0  0  0  0  0  0  0  0  0  0  0
    7.2176   52.2573  128.5255 C   0  0  0  0  0  0  0  0  0  0  0  0
    7.1846   52.1310  127.1712 C   0  0  0  0  0  0  0  0  0  0  0  0
    6.8868   53.3363  126.6002 N   0  0  0  0  0  0  0  0  0  0  0  0
    6.7437   54.1780  127.6270 C   0  0  0  0  0  0  0  0  0  0  0  0
    6.9384   53.5410  128.7542 O   0  0  0  0  0  0  0  0  0  0  0  0
    5.3084   48.4422  128.6394 C   0  0  0  0  0  0  0  0  0  0  0  0
    5.8284   49.7495  128.7088 O   0  0  0  0  0  0  0  0  0  0  0  0
    8.0953   44.3860  130.0717 N   0  0  0  0  0  0  0  0  0  0  0  0
    7.0711   44.0899  130.1214 H   0  0  0  0  0  0  0  0  0  0  0  0
    8.8249   44.0149  128.9166 C   0  0  0  0  0  0  0  0  0  0  0  0
    9.5369   42.6855  128.9964 C   0  0  0  0  0  0  0  0  0  0  0  0
   10.2631   42.6892  127.6419 C   0  0  0  0  0  0  0  0  0  0  0  0
   10.6971   44.1285  127.4671 C   0  0  0  0  0  0  0  0  0  0  0  0
    9.9063   44.9449  128.4801 C   0  0  0  0  0  0  0  0  0  0  0  0
 26 27  1  0  0  0
 27 15  1  0  0  0
 15 16  2  0  0  0
 16 17  1  0  0  0
 17 13  1  0  0  0
 13  1  1  0  0  0
  1  2  2  0  0  0
  2  3  1  0  0  0
  3 28  1  0  0  0
 28 30  1  0  0  0
 30 31  1  0  0  0
 31 32  1  0  0  0
 32 33  1  0  0  0
 33 34  1  0  0  0
  3  4  2  0  0  0
  4  5  1  0  0  0
  5  6  2  0  0  0
  5  7  1  0  0  0
  7  8  2  0  0  0
  8  9  1  0  0  0
  9 10  2  0  0  0
 10 11  1  0  0  0
 11 12  2  0  0  0
 17 18  2  0  0  0
 18 19  1  0  0  0
 19 20  2  0  0  0
 20 21  1  0  0  0
 21 22  2  0  0  0
 22 23  1  0  0  0
 23 24  2  0  0  0
 24 25  1  0  0  0
 20 15  1  0  0  0
 25 21  1  0  0  0
  6  1  1  0  0  0
 12  7  1  0  0  0
 34 30  1  0  0  0
 13 14  1  0  0  0
 28 29  1  0  0  0
M  END
> <minimizedAffinity>
9.92639

> <CNNscore>
0.3694556355

> <CNNaffinity>
7.5748128891

> <CNN_VS>
2.7985572815

> <CNNaffinity_variance>
1.5392600298

$$$$
[H]N=C(N([H])[H])N([H])C([H])([H])C([H])([H])C([H])([H])[C@]([H])(C(=O)N([H])[H])N([H])C(=O)[C@@]1([H])N(C(=O)[C@@]([H])(N([H])C(=O)OC([H])([H])c2c([H])c([H])c([H])c([H])c2[H])C([H])([H])c2c([H])c([H])c([H])c([H])c2[H])C([H])([H])C([H])([H])C1([H])[H]


 48 50  0  0  0  0  0  0  0  0999 V2000
    8.3092   49.6987  132.1729 C   0  0  0  0  0  0  0  0  0  0  0  0
    9.3631   50.7608  132.3292 C   0  0  0  0  0  0  0  0  0  0  0  0
   10.5596   50.2754  131.5606 C   0  0  0  0  0  0  0  0  0  0  0  0
   10.1485   48.9478  130.9873 C   0  0  0  0  0  0  0  0  0  0  0  0
    9.0782   48.5220  131.8419 N   0  0  0  0  0  0  0  0  0  0  0  0
    8.7541   47.2173  132.3492 C   0  0  0  0  0  0  0  0  0  0  0  0
    7.7764   47.1261  133.1579 O   0  0  0  0  0  0  0  0  0  0  0  0
    7.7753   50.7227  129.8860 N   0  0  0  0  0  0  0  0  0  0  0  0
    7.3940   49.9800  131.0508 C   0  0  0  0  0  0  0  0  0  0  0  0
    6.2186   49.5590  131.0949 O   0  0  0  0  0  0  0  0  0  0  0  0
    8.7366   51.0911  129.8940 H   0  0  0  0  0  0  0  0  0  0  0  0
    6.8872   50.9866  128.8104 C   0  0  0  0  0  0  0  0  0  0  0  0
    7.0539   52.3610  128.2530 C   0  0  0  0  0  0  0  0  0  0  0  0
    7.4470   52.5053  126.9030 N   0  0  0  0  0  0  0  0  0  0  0  0
    6.8601   53.3996  128.9292 O   0  0  0  0  0  0  0  0  0  0  0  0
    8.3795   52.8474  126.6093 H   0  0  0  0  0  0  0  0  0  0  0  0
    6.7646   52.2561  126.1583 H   0  0  0  0  0  0  0  0  0  0  0  0
    6.8279   49.9445  127.7476 C   0  0  0  0  0  0  0  0  0  0  0  0
    7.7889   48.8440  127.7022 C   0  0  0  0  0  0  0  0  0  0  0  0
    7.4401   47.5937  128.4368 C   0  0  0  0  0  0  0  0  0  0  0  0
    5.9577   47.6357  128.5759 N   0  0  0  0  0  0  0  0  0  0  0  0
    5.4591   48.2328  127.8861 H   0  0  0  0  0  0  0  0  0  0  0  0
    6.1302   46.2951  130.6113 N   0  0  0  0  0  0  0  0  0  0  0  0
    5.3430   46.8890  129.5989 C   0  0  0  0  0  0  0  0  0  0  0  0
    4.0701   46.7532  129.6043 N   0  0  0  0  0  0  0  0  0  0  0  0
    5.9308   45.3298  130.9443 H   0  0  0  0  0  0  0  0  0  0  0  0
    6.9176   46.8411  131.0205 H   0  0  0  0  0  0  0  0  0  0  0  0
    3.5526   46.2061  130.3440 H   0  0  0  0  0  0  0  0  0  0  0  0
    9.5092   45.9858  131.9711 C   0  0  0  0  0  0  0  0  0  0  0  0
    9.9335   45.3037  133.1740 N   0  0  0  0  0  0  0  0  0  0  0  0
   10.4769   45.8749  134.3298 C   0  0  0  0  0  0  0  0  0  0  0  0
   10.6423   47.1069  134.4224 O   0  0  0  0  0  0  0  0  0  0  0  0
    9.8291   44.2372  133.2078 H   0  0  0  0  0  0  0  0  0  0  0  0
   10.8530   45.1085  135.4146 O   0  0  0  0  0  0  0  0  0  0  0  0
   11.3225   43.7864  135.3603 C   0  0  0  0  0  0  0  0  0  0  0  0
   11.3609   43.2185  133.9926 C   0  0  0  0  0  0  0  0  0  0  0  0
   12.3932   43.3640  133.1034 C   0  0  0  0  0  0  0  0  0  0  0  0
   12.3862   42.8219  131.8413 C   0  0  0  0  0  0  0  0  0  0  0  0
   11.2834   42.0969  131.4569 C   0  0  0  0  0  0  0  0  0  0  0  0
   10.1981   41.9108  132.3144 C   0  0  0  0  0  0  0  0  0  0  0  0
   10.2681   42.4789  133.5618 C   0  0  0  0  0  0  0  0  0  0  0  0
    8.6946   45.1061  131.0874 C   0  0  0  0  0  0  0  0  0  0  0  0
    9.3907   44.6097  129.8795 C   0  0  0  0  0  0  0  0  0  0  0  0
   10.5744   45.2232  129.4400 C   0  0  0  0  0  0  0  0  0  0  0  0
   11.2282   44.7935  128.3121 C   0  0  0  0  0  0  0  0  0  0  0  0
   10.7638   43.7464  127.5555 C   0  0  0  0  0  0  0  0  0  0  0  0
    9.6045   43.1315  127.9689 C   0  0  0  0  0  0  0  0  0  0  0  0
    8.9343   43.5672  129.1190 C   0  0  0  0  0  0  0  0  0  0  0  0
 23 24  1  0  0  0
 24 25  2  0  0  0
 24 21  1  0  0  0
 21 20  1  0  0  0
 20 19  1  0  0  0
 19 18  1  0  0  0
 18 12  1  0  0  0
 12  8  1  0  0  0
  8  9  1  0  0  0
  9 10  2  0  0  0
  9  1  1  0  0  0
  1  2  1  0  0  0
  2  3  1  0  0  0
  3  4  1  0  0  0
  4  5  1  0  0  0
  5  6  1  0  0  0
  6  7  2  0  0  0
  6 29  1  0  0  0
 29 42  1  0  0  0
 42 43  1  0  0  0
 43 44  2  0  0  0
 44 45  1  0  0  0
 45 46  2  0  0  0
 46 47  1  0  0  0
 47 48  2  0  0  0
 29 30  1  0  0  0
 30 31  1  0  0  0
 31 32  2  0  0  0
 31 34  1  0  0  0
 34 35  1  0  0  0
 35 36  1  0  0  0
 36 37  2  0  0  0
 37 38  1  0  0  0
 38 39  2  0  0  0
 39 40  1  0  0  0
 40 41  2  0  0  0
 12 13  1  0  0  0
 13 14  1  0  0  0
 13 15  2  0  0  0
  5  1  1  0  0  0
 48 43  1  0  0  0
 41 36  1  0  0  0
 23 26  1  0  0  0
 23 27  1  0  0  0
 25 28  1  0  0  0
 21 22  1  0  0  0
  8 11  1  0  0  0
 30 33  1  0  0  0
 14 16  1  0  0  0
 14 17  1  0  0  0
M  END
> <minimizedAffinity>
3.98056

> <CNNscore>
0.4575074911

> <CNNaffinity>
7.8422460556

> <CNN_VS>
3.5878863335

> <CNNaffinity_variance>
0.4654807448

$$$$
[H]N=C(N([H])[H])N([H])C([H])([H])C([H])([H])C([H])([H])[C@]([H])(C(=O)N([H])[H])N([H])C(=O)[C@@]1([H])N(C(=O)[C@@]([H])(N([H])C(=O)OC([H])([H])c2c([H])c([H])c([H])c([H])c2[H])C([H])([H])c2c([H])c([H])c([H])c([H])c2[H])C([H])([H])C([H])([H])C1([H])[H]


 48 50  0  0  0  0  0  0  0  0999 V2000
    8.4225   49.0381  132.6242 C   0  0  0  0  0  0  0  0  0  0  0  0
    9.5208   49.9498  133.0995 C   0  0  0  0  0  0  0  0  0  0  0  0
   10.8110   49.2758  132.7269 C   0  0  0  0  0  0  0  0  0  0  0  0
   10.4065   47.9971  132.0474 C   0  0  0  0  0  0  0  0  0  0  0  0
    9.0793   47.7551  132.5345 N   0  0  0  0  0  0  0  0  0  0  0  0
    8.4348   46.5274  132.9112 C   0  0  0  0  0  0  0  0  0  0  0  0
    7.2565   46.6020  133.3848 O   0  0  0  0  0  0  0  0  0  0  0  0
    6.5635   49.3098  130.8825 N   0  0  0  0  0  0  0  0  0  0  0  0
    7.9375   49.4010  131.2793 C   0  0  0  0  0  0  0  0  0  0  0  0
    8.7487   49.8124  130.4229 O   0  0  0  0  0  0  0  0  0  0  0  0
    5.9240   48.9306  131.5945 H   0  0  0  0  0  0  0  0  0  0  0  0
    6.1066   49.6632  129.5858 C   0  0  0  0  0  0  0  0  0  0  0  0
    7.0234   50.6168  128.8946 C   0  0  0  0  0  0  0  0  0  0  0  0
    6.9646   51.9870  129.2365 N   0  0  0  0  0  0  0  0  0  0  0  0
    7.8482   50.2578  128.0204 O   0  0  0  0  0  0  0  0  0  0  0  0
    6.5893   52.7205  128.6088 H   0  0  0  0  0  0  0  0  0  0  0  0
    7.3177   52.2809  130.1699 H   0  0  0  0  0  0  0  0  0  0  0  0
    5.6993   48.5290  128.7100 C   0  0  0  0  0  0  0  0  0  0  0  0
    5.5517   47.1730  129.2354 C   0  0  0  0  0  0  0  0  0  0  0  0
    6.7364   46.5594  129.9022 C   0  0  0  0  0  0  0  0  0  0  0  0
    7.5918   46.0726  128.7843 N   0  0  0  0  0  0  0  0  0  0  0  0
    7.1472   45.3820  128.1468 H   0  0  0  0  0  0  0  0  0  0  0  0
    9.6345   46.3445  127.4714 N   0  0  0  0  0  0  0  0  0  0  0  0
    8.9066   46.5614  128.6632 C   0  0  0  0  0  0  0  0  0  0  0  0
    9.4349   47.2016  129.6378 N   0  0  0  0  0  0  0  0  0  0  0  0
   10.6386   46.0737  127.5017 H   0  0  0  0  0  0  0  0  0  0  0  0
    9.1476   46.4596  126.5575 H   0  0  0  0  0  0  0  0  0  0  0  0
   10.4151   47.5919  129.6063 H   0  0  0  0  0  0  0  0  0  0  0  0
    9.0848   45.1903  132.7720 C   0  0  0  0  0  0  0  0  0  0  0  0
    8.9225   44.7252  131.4120 N   0  0  0  0  0  0  0  0  0  0  0  0
    8.4598   43.4742  130.9897 C   0  0  0  0  0  0  0  0  0  0  0  0
    8.1192   42.6024  131.8129 O   0  0  0  0  0  0  0  0  0  0  0  0
    9.1795   45.3990  130.6187 H   0  0  0  0  0  0  0  0  0  0  0  0
    8.3588   43.1474  129.6523 O   0  0  0  0  0  0  0  0  0  0  0  0
    9.4360   42.9313  128.7781 C   0  0  0  0  0  0  0  0  0  0  0  0
   10.7276   43.4602  129.2746 C   0  0  0  0  0  0  0  0  0  0  0  0
   11.5299   44.3470  128.6057 C   0  0  0  0  0  0  0  0  0  0  0  0
   12.7238   44.8102  129.1026 C   0  0  0  0  0  0  0  0  0  0  0  0
   13.1286   44.3567  130.3355 C   0  0  0  0  0  0  0  0  0  0  0  0
   12.3583   43.4531  131.0689 C   0  0  0  0  0  0  0  0  0  0  0  0
   11.1760   43.0292  130.5155 C   0  0  0  0  0  0  0  0  0  0  0  0
   10.5171   45.2442  133.1771 C   0  0  0  0  0  0  0  0  0  0  0  0
   10.8173   44.6667  134.5061 C   0  0  0  0  0  0  0  0  0  0  0  0
   10.1312   45.1145  135.6460 C   0  0  0  0  0  0  0  0  0  0  0  0
   10.4047   44.6081  136.8921 C   0  0  0  0  0  0  0  0  0  0  0  0
   11.3589   43.6415  137.0920 C   0  0  0  0  0  0  0  0  0  0  0  0
   12.0433   43.1890  135.9876 C   0  0  0  0  0  0  0  0  0  0  0  0
   11.7672   43.7035  134.7144 C   0  0  0  0  0  0  0  0  0  0  0  0
 23 24  1  0  0  0
 24 25  2  0  0  0
 24 21  1  0  0  0
 21 20  1  0  0  0
 20 19  1  0  0  0
 19 18  1  0  0  0
 18 12  1  0  0  0
 12  8  1  0  0  0
  8  9  1  0  0  0
  9 10  2  0  0  0
  9  1  1  0  0  0
  1  2  1  0  0  0
  2  3  1  0  0  0
  3  4  1  0  0  0
  4  5  1  0  0  0
  5  6  1  0  0  0
  6  7  2  0  0  0
  6 29  1  0  0  0
 29 42  1  0  0  0
 42 43  1  0  0  0
 43 44  2  0  0  0
 44 45  1  0  0  0
 45 46  2  0  0  0
 46 47  1  0  0  0
 47 48  2  0  0  0
 29 30  1  0  0  0
 30 31  1  0  0  0
 31 32  2  0  0  0
 31 34  1  0  0  0
 34 35  1  0  0  0
 35 36  1  0  0  0
 36 37  2  0  0  0
 37 38  1  0  0  0
 38 39  2  0  0  0
 39 40  1  0  0  0
 40 41  2  0  0  0
 12 13  1  0  0  0
 13 14  1  0  0  0
 13 15  2  0  0  0
  5  1  1  0  0  0
 48 43  1  0  0  0
 41 36  1  0  0  0
 23 26  1  0  0  0
 23 27  1  0  0  0
 25 28  1  0  0  0
 21 22  1  0  0  0
  8 11  1  0  0  0
 30 33  1  0  0  0
 14 16  1  0  0  0
 14 17  1  0  0  0
M  END
> <minimizedAffinity>
3.52002

> <CNNscore>
0.4346062243

> <CNNaffinity>
7.6670989990

> <CNN_VS>
3.3321690559

> <CNNaffinity_variance>
0.2771958113

$$$$
[H]N=C(N([H])[H])N([H])C([H])([H])C([H])([H])C([H])([H])[C@]([H])(C(=O)N([H])[H])N([H])C(=O)[C@@]1([H])N(C(=O)[C@@]([H])(N([H])C(=O)OC([H])([H])c2c([H])c([H])c([H])c([H])c2[H])C([H])([H])c2c([H])c([H])c([H])c([H])c2[H])C([H])([H])C([H])([H])C1([H])[H]


 48 50  0  0  0  0  0  0  0  0999 V2000
    8.4791   49.4669  132.7550 C   0  0  0  0  0  0  0  0  0  0  0  0
    9.1856   50.6374  133.3827 C   0  0  0  0  0  0  0  0  0  0  0  0
   10.6155   50.5520  132.9289 C   0  0  0  0  0  0  0  0  0  0  0  0
   10.6794   49.3319  132.0528 C   0  0  0  0  0  0  0  0  0  0  0  0
    9.5565   48.5464  132.4765 N   0  0  0  0  0  0  0  0  0  0  0  0
    9.4250   47.1260  132.6480 C   0  0  0  0  0  0  0  0  0  0  0  0
    8.3236   46.6880  133.1098 O   0  0  0  0  0  0  0  0  0  0  0  0
    6.7869   49.0518  130.8769 N   0  0  0  0  0  0  0  0  0  0  0  0
    7.8363   49.8223  131.4759 C   0  0  0  0  0  0  0  0  0  0  0  0
    8.2093   50.8450  130.8629 O   0  0  0  0  0  0  0  0  0  0  0  0
    6.5270   48.1938  131.3828 H   0  0  0  0  0  0  0  0  0  0  0  0
    6.1734   49.4034  129.6459 C   0  0  0  0  0  0  0  0  0  0  0  0
    7.1122   50.0946  128.7140 C   0  0  0  0  0  0  0  0  0  0  0  0
    6.9252   51.4717  128.4563 N   0  0  0  0  0  0  0  0  0  0  0  0
    8.0646   49.5082  128.1459 O   0  0  0  0  0  0  0  0  0  0  0  0
    6.5907   51.8468  127.5506 H   0  0  0  0  0  0  0  0  0  0  0  0
    7.1348   52.1513  129.2156 H   0  0  0  0  0  0  0  0  0  0  0  0
    5.3986   48.3223  128.9752 C   0  0  0  0  0  0  0  0  0  0  0  0
    5.2106   47.0153  129.6023 C   0  0  0  0  0  0  0  0  0  0  0  0
    6.4158   46.3422  130.1673 C   0  0  0  0  0  0  0  0  0  0  0  0
    7.5661   46.9551  129.4466 N   0  0  0  0  0  0  0  0  0  0  0  0
    7.6759   47.9819  129.5676 H   0  0  0  0  0  0  0  0  0  0  0  0
    8.1798   44.7397  128.6186 N   0  0  0  0  0  0  0  0  0  0  0  0
    8.4066   46.1337  128.6714 C   0  0  0  0  0  0  0  0  0  0  0  0
    9.3740   46.6580  128.0172 N   0  0  0  0  0  0  0  0  0  0  0  0
    8.9733   44.0684  128.6629 H   0  0  0  0  0  0  0  0  0  0  0  0
    7.2008   44.3929  128.5351 H   0  0  0  0  0  0  0  0  0  0  0  0
   10.0368   46.0947  127.4191 H   0  0  0  0  0  0  0  0  0  0  0  0
   10.5138   46.1609  132.3121 C   0  0  0  0  0  0  0  0  0  0  0  0
   10.4083   45.0086  133.1800 N   0  0  0  0  0  0  0  0  0  0  0  0
   11.3326   44.5765  134.1373 C   0  0  0  0  0  0  0  0  0  0  0  0
   12.3926   45.2012  134.3367 O   0  0  0  0  0  0  0  0  0  0  0  0
    9.5293   44.4001  133.0992 H   0  0  0  0  0  0  0  0  0  0  0  0
   11.1173   43.4470  134.9013 O   0  0  0  0  0  0  0  0  0  0  0  0
   10.3463   42.3364  134.5224 C   0  0  0  0  0  0  0  0  0  0  0  0
    9.8601   42.3918  133.1243 C   0  0  0  0  0  0  0  0  0  0  0  0
    8.6001   42.7673  132.7383 C   0  0  0  0  0  0  0  0  0  0  0  0
    8.1894   42.8016  131.4280 C   0  0  0  0  0  0  0  0  0  0  0  0
    9.0944   42.4395  130.4587 C   0  0  0  0  0  0  0  0  0  0  0  0
   10.3935   42.0472  130.7843 C   0  0  0  0  0  0  0  0  0  0  0  0
   10.7403   42.0344  132.1122 C   0  0  0  0  0  0  0  0  0  0  0  0
   10.4708   45.7820  130.8723 C   0  0  0  0  0  0  0  0  0  0  0  0
   11.7233   45.2042  130.3360 C   0  0  0  0  0  0  0  0  0  0  0  0
   11.8529   44.9417  128.9631 C   0  0  0  0  0  0  0  0  0  0  0  0
   12.9971   44.3887  128.4442 C   0  0  0  0  0  0  0  0  0  0  0  0
   14.0717   44.0633  129.2340 C   0  0  0  0  0  0  0  0  0  0  0  0
   13.9649   44.3122  130.5829 C   0  0  0  0  0  0  0  0  0  0  0  0
   12.7989   44.8762  131.1163 C   0  0  0  0  0  0  0  0  0  0  0  0
 23 24  1  0  0  0
 24 25  2  0  0  0
 24 21  1  0  0  0
 21 20  1  0  0  0
 20 19  1  0  0  0
 19 18  1  0  0  0
 18 12  1  0  0  0
 12  8  1  0  0  0
  8  9  1  0  0  0
  9 10  2  0  0  0
  9  1  1  0  0  0
  1  2  1  0  0  0
  2  3  1  0  0  0
  3  4  1  0  0  0
  4  5  1  0  0  0
  5  6  1  0  0  0
  6  7  2  0  0  0
  6 29  1  0  0  0
 29 42  1  0  0  0
 42 43  1  0  0  0
 43 44  2  0  0  0
 44 45  1  0  0  0
 45 46  2  0  0  0
 46 47  1  0  0  0
 47 48  2  0  0  0
 29 30  1  0  0  0
 30 31  1  0  0  0
 31 32  2  0  0  0
 31 34  1  0  0  0
 34 35  1  0  0  0
 35 36  1  0  0  0
 36 37  2  0  0  0
 37 38  1  0  0  0
 38 39  2  0  0  0
 39 40  1  0  0  0
 40 41  2  0  0  0
 12 13  1  0  0  0
 13 14  1  0  0  0
 13 15  2  0  0  0
  5  1  1  0  0  0
 48 43  1  0  0  0
 41 36  1  0  0  0
 23 26  1  0  0  0
 23 27  1  0  0  0
 25 28  1  0  0  0
 21 22  1  0  0  0
  8 11  1  0  0  0
 30 33  1  0  0  0
 14 16  1  0  0  0
 14 17  1  0  0  0
M  END
> <minimizedAffinity>
3.71580

> <CNNscore>
0.4297381938

> <CNNaffinity>
7.7315149307

> <CNN_VS>
3.3225271702

> <CNNaffinity_variance>
0.4556708932

$$$$
[H]N=C(N([H])[H])N([H])C([H])([H])C([H])([H])C([H])([H])[C@]([H])(C(=O)N([H])[H])N([H])C(=O)[C@@]1([H])N(C(=O)[C@@]([H])(N([H])C(=O)OC([H])([H])c2c([H])c([H])c([H])c([H])c2[H])C([H])([H])c2c([H])c([H])c([H])c([H])c2[H])C([H])([H])C([H])([H])C1([H])[H]


 48 50  0  0  0  0  0  0  0  0999 V2000
    8.2847   49.2324  132.4632 C   0  0  0  0  0  0  0  0  0  0  0  0
    8.5795   50.6653  132.8143 C   0  0  0  0  0  0  0  0  0  0  0  0
    9.9740   50.9350  132.3240 C   0  0  0  0  0  0  0  0  0  0  0  0
   10.4317   49.6435  131.7055 C   0  0  0  0  0  0  0  0  0  0  0  0
    9.6003   48.6528  132.3257 N   0  0  0  0  0  0  0  0  0  0  0  0
    9.9135   47.3266  132.7813 C   0  0  0  0  0  0  0  0  0  0  0  0
    8.9937   46.6732  133.3689 O   0  0  0  0  0  0  0  0  0  0  0  0
    7.8626   48.0649  130.2223 N   0  0  0  0  0  0  0  0  0  0  0  0
    7.5893   49.1058  131.1685 C   0  0  0  0  0  0  0  0  0  0  0  0
    6.7113   49.9383  130.8576 O   0  0  0  0  0  0  0  0  0  0  0  0
    8.6174   47.4167  130.4866 H   0  0  0  0  0  0  0  0  0  0  0  0
    7.1862   47.9507  128.9794 C   0  0  0  0  0  0  0  0  0  0  0  0
    5.7155   47.7560  129.1423 C   0  0  0  0  0  0  0  0  0  0  0  0
    5.2489   46.5672  129.7479 N   0  0  0  0  0  0  0  0  0  0  0  0
    4.8694   48.6021  128.7657 O   0  0  0  0  0  0  0  0  0  0  0  0
    4.7548   45.8159  129.2339 H   0  0  0  0  0  0  0  0  0  0  0  0
    5.4074   46.4347  130.7676 H   0  0  0  0  0  0  0  0  0  0  0  0
    7.5138   48.9912  127.9648 C   0  0  0  0  0  0  0  0  0  0  0  0
    7.6648   50.3974  128.3339 C   0  0  0  0  0  0  0  0  0  0  0  0
    6.4230   51.1714  128.6227 C   0  0  0  0  0  0  0  0  0  0  0  0
    6.8901   52.5668  128.8537 N   0  0  0  0  0  0  0  0  0  0  0  0
    6.9350   52.8661  129.8484 H   0  0  0  0  0  0  0  0  0  0  0  0
    7.3930   52.7812  126.4723 N   0  0  0  0  0  0  0  0  0  0  0  0
    7.2309   53.3683  127.7476 C   0  0  0  0  0  0  0  0  0  0  0  0
    7.3919   54.6284  127.9061 N   0  0  0  0  0  0  0  0  0  0  0  0
    8.1764   53.0663  125.8498 H   0  0  0  0  0  0  0  0  0  0  0  0
    6.7133   52.0543  126.1639 H   0  0  0  0  0  0  0  0  0  0  0  0
    7.6470   55.2801  127.1160 H   0  0  0  0  0  0  0  0  0  0  0  0
   11.2549   46.6973  132.5959 C   0  0  0  0  0  0  0  0  0  0  0  0
   11.4055   45.6171  133.5460 N   0  0  0  0  0  0  0  0  0  0  0  0
   10.9211   45.5632  134.8575 C   0  0  0  0  0  0  0  0  0  0  0  0
   10.2675   46.5078  135.3416 O   0  0  0  0  0  0  0  0  0  0  0  0
   11.9466   44.7464  133.2321 H   0  0  0  0  0  0  0  0  0  0  0  0
   11.1413   44.4707  135.6720 O   0  0  0  0  0  0  0  0  0  0  0  0
   11.0981   43.1264  135.2691 C   0  0  0  0  0  0  0  0  0  0  0  0
   11.1612   42.9372  133.8012 C   0  0  0  0  0  0  0  0  0  0  0  0
   12.2885   43.0691  133.0334 C   0  0  0  0  0  0  0  0  0  0  0  0
   12.3017   42.8871  131.6720 C   0  0  0  0  0  0  0  0  0  0  0  0
   11.1194   42.5556  131.0542 C   0  0  0  0  0  0  0  0  0  0  0  0
    9.9356   42.4057  131.7778 C   0  0  0  0  0  0  0  0  0  0  0  0
    9.9905   42.6017  133.1351 C   0  0  0  0  0  0  0  0  0  0  0  0
   11.4434   46.2373  131.1920 C   0  0  0  0  0  0  0  0  0  0  0  0
   10.2504   45.6266  130.5645 C   0  0  0  0  0  0  0  0  0  0  0  0
    9.1085   45.3486  131.3322 C   0  0  0  0  0  0  0  0  0  0  0  0
    7.9966   44.7653  130.7776 C   0  0  0  0  0  0  0  0  0  0  0  0
    7.9397   44.4230  129.4493 C   0  0  0  0  0  0  0  0  0  0  0  0
    9.0489   44.6866  128.6792 C   0  0  0  0  0  0  0  0  0  0  0  0
   10.1855   45.2816  129.2415 C   0  0  0  0  0  0  0  0  0  0  0  0
 23 24  1  0  0  0
 24 25  2  0  0  0
 24 21  1  0  0  0
 21 20  1  0  0  0
 20 19  1  0  0  0
 19 18  1  0  0  0
 18 12  1  0  0  0
 12  8  1  0  0  0
  8  9  1  0  0  0
  9 10  2  0  0  0
  9  1  1  0  0  0
  1  2  1  0  0  0
  2  3  1  0  0  0
  3  4  1  0  0  0
  4  5  1  0  0  0
  5  6  1  0  0  0
  6  7  2  0  0  0
  6 29  1  0  0  0
 29 42  1  0  0  0
 42 43  1  0  0  0
 43 44  2  0  0  0
 44 45  1  0  0  0
 45 46  2  0  0  0
 46 47  1  0  0  0
 47 48  2  0  0  0
 29 30  1  0  0  0
 30 31  1  0  0  0
 31 32  2  0  0  0
 31 34  1  0  0  0
 34 35  1  0  0  0
 35 36  1  0  0  0
 36 37  2  0  0  0
 37 38  1  0  0  0
 38 39  2  0  0  0
 39 40  1  0  0  0
 40 41  2  0  0  0
 12 13  1  0  0  0
 13 14  1  0  0  0
 13 15  2  0  0  0
  5  1  1  0  0  0
 48 43  1  0  0  0
 41 36  1  0  0  0
 23 26  1  0  0  0
 23 27  1  0  0  0
 25 28  1  0  0  0
 21 22  1  0  0  0
  8 11  1  0  0  0
 30 33  1  0  0  0
 14 16  1  0  0  0
 14 17  1  0  0  0
M  END
> <minimizedAffinity>
4.47476

> <CNNscore>
0.4151869118

> <CNNaffinity>
7.6135230064

> <CNN_VS>
3.1610350609

> <CNNaffinity_variance>
0.3923612237

$$$$
[H]N=C(N([H])[H])N([H])C([H])([H])C([H])([H])C([H])([H])[C@]([H])(C(=O)N([H])[H])N([H])C(=O)[C@@]1([H])N(C(=O)[C@@]([H])(N([H])C(=O)OC([H])([H])c2c([H])c([H])c([H])c([H])c2[H])C([H])([H])c2c([H])c([H])c([H])c([H])c2[H])C([H])([H])C([H])([H])C1([H])[H]


 48 50  0  0  0  0  0  0  0  0999 V2000
    8.5011   49.0039  132.0364 C   0  0  0  0  0  0  0  0  0  0  0  0
    8.8109   50.4067  132.4828 C   0  0  0  0  0  0  0  0  0  0  0  0
   10.0641   50.8069  131.7568 C   0  0  0  0  0  0  0  0  0  0  0  0
   10.4302   49.6159  130.9155 C   0  0  0  0  0  0  0  0  0  0  0  0
    9.7800   48.5192  131.5724 N   0  0  0  0  0  0  0  0  0  0  0  0
   10.2270   47.1730  131.8011 C   0  0  0  0  0  0  0  0  0  0  0  0
    9.4716   46.4093  132.4827 O   0  0  0  0  0  0  0  0  0  0  0  0
    7.6986   48.0911  129.7813 N   0  0  0  0  0  0  0  0  0  0  0  0
    7.5591   48.9734  130.9019 C   0  0  0  0  0  0  0  0  0  0  0  0
    6.5794   49.7486  130.8944 O   0  0  0  0  0  0  0  0  0  0  0  0
    8.5354   47.4917  129.7944 H   0  0  0  0  0  0  0  0  0  0  0  0
    6.7851   48.0683  128.6948 C   0  0  0  0  0  0  0  0  0  0  0  0
    5.3694   47.9067  129.1389 C   0  0  0  0  0  0  0  0  0  0  0  0
    4.9031   46.6143  129.4706 N   0  0  0  0  0  0  0  0  0  0  0  0
    4.5697   48.8686  129.2327 O   0  0  0  0  0  0  0  0  0  0  0  0
    4.2258   46.0823  128.8951 H   0  0  0  0  0  0  0  0  0  0  0  0
    5.2563   46.1679  130.3414 H   0  0  0  0  0  0  0  0  0  0  0  0
    6.9457   49.1558  127.6895 C   0  0  0  0  0  0  0  0  0  0  0  0
    7.3707   50.4992  128.0785 C   0  0  0  0  0  0  0  0  0  0  0  0
    6.5936   51.1842  129.1517 C   0  0  0  0  0  0  0  0  0  0  0  0
    7.0058   52.6129  129.0662 N   0  0  0  0  0  0  0  0  0  0  0  0
    7.1233   53.1013  129.9765 H   0  0  0  0  0  0  0  0  0  0  0  0
    7.4436   52.3748  126.6742 N   0  0  0  0  0  0  0  0  0  0  0  0
    7.2046   53.1952  127.7999 C   0  0  0  0  0  0  0  0  0  0  0  0
    7.1669   54.4689  127.6772 N   0  0  0  0  0  0  0  0  0  0  0  0
    8.1657   52.6320  125.9707 H   0  0  0  0  0  0  0  0  0  0  0  0
    6.8835   51.5038  126.5595 H   0  0  0  0  0  0  0  0  0  0  0  0
    7.3080   54.9629  126.7551 H   0  0  0  0  0  0  0  0  0  0  0  0
   11.5230   46.6455  131.2797 C   0  0  0  0  0  0  0  0  0  0  0  0
   11.8599   45.4320  131.9911 N   0  0  0  0  0  0  0  0  0  0  0  0
   12.8000   44.4631  131.6240 C   0  0  0  0  0  0  0  0  0  0  0  0
   13.4754   44.5832  130.5832 O   0  0  0  0  0  0  0  0  0  0  0  0
   11.3431   45.2299  132.9085 H   0  0  0  0  0  0  0  0  0  0  0  0
   13.0236   43.3366  132.3900 O   0  0  0  0  0  0  0  0  0  0  0  0
   12.1721   42.8453  133.3924 C   0  0  0  0  0  0  0  0  0  0  0  0
   10.7350   43.0969  133.1360 C   0  0  0  0  0  0  0  0  0  0  0  0
    9.9768   42.4622  132.1874 C   0  0  0  0  0  0  0  0  0  0  0  0
    8.6453   42.7289  131.9809 C   0  0  0  0  0  0  0  0  0  0  0  0
    8.0486   43.6829  132.7705 C   0  0  0  0  0  0  0  0  0  0  0  0
    8.7640   44.3661  133.7549 C   0  0  0  0  0  0  0  0  0  0  0  0
   10.0911   44.0526  133.9099 C   0  0  0  0  0  0  0  0  0  0  0  0
   11.4626   46.4317  129.8069 C   0  0  0  0  0  0  0  0  0  0  0  0
   10.5120   45.3889  129.3611 C   0  0  0  0  0  0  0  0  0  0  0  0
    9.1319   45.5564  129.5562 C   0  0  0  0  0  0  0  0  0  0  0  0
    8.2315   44.5954  129.1687 C   0  0  0  0  0  0  0  0  0  0  0  0
    8.6280   43.4241  128.5725 C   0  0  0  0  0  0  0  0  0  0  0  0
    9.9768   43.2400  128.3725 C   0  0  0  0  0  0  0  0  0  0  0  0
   10.8986   44.2180  128.7668 C   0  0  0  0  0  0  0  0  0  0  0  0
 23 24  1  0  0  0
 24 25  2  0  0  0
 24 21  1  0  0  0
 21 20  1  0  0  0
 20 19  1  0  0  0
 19 18  1  0  0  0
 18 12  1  0  0  0
 12  8  1  0  0  0
  8  9  1  0  0  0
  9 10  2  0  0  0
  9  1  1  0  0  0
  1  2  1  0  0  0
  2  3  1  0  0  0
  3  4  1  0  0  0
  4  5  1  0  0  0
  5  6  1  0  0  0
  6  7  2  0  0  0
  6 29  1  0  0  0
 29 42  1  0  0  0
 42 43  1  0  0  0
 43 44  2  0  0  0
 44 45  1  0  0  0
 45 46  2  0  0  0
 46 47  1  0  0  0
 47 48  2  0  0  0
 29 30  1  0  0  0
 30 31  1  0  0  0
 31 32  2  0  0  0
 31 34  1  0  0  0
 34 35  1  0  0  0
 35 36  1  0  0  0
 36 37  2  0  0  0
 37 38  1  0  0  0
 38 39  2  0  0  0
 39 40  1  0  0  0
 40 41  2  0  0  0
 12 13  1  0  0  0
 13 14  1  0  0  0
 13 15  2  0  0  0
  5  1  1  0  0  0
 48 43  1  0  0  0
 41 36  1  0  0  0
 23 26  1  0  0  0
 23 27  1  0  0  0
 25 28  1  0  0  0
 21 22  1  0  0  0
  8 11  1  0  0  0
 30 33  1  0  0  0
 14 16  1  0  0  0
 14 17  1  0  0  0
M  END
> <minimizedAffinity>
3.39057

> <CNNscore>
0.3961038589

> <CNNaffinity>
7.6899156570

> <CNN_VS>
3.0460052490

> <CNNaffinity_variance>
0.3504514098

$$$$
[H]N=C(N([H])[H])N([H])C([H])([H])C([H])([H])C([H])([H])[C@]([H])(C(=O)N([H])[H])N([H])C(=O)[C@@]1([H])N(C(=O)[C@@]([H])(N([H])C(=O)OC([H])([H])c2c([H])c([H])c([H])c([H])c2[H])C([H])([H])c2c([H])c([H])c([H])c([H])c2[H])C([H])([H])C([H])([H])C1([H])[H]


 48 50  0  0  0  0  0  0  0  0999 V2000
    9.7966   47.9928  134.0947 C   0  0  0  0  0  0  0  0  0  0  0  0
   11.2788   47.9642  134.3508 C   0  0  0  0  0  0  0  0  0  0  0  0
   11.8513   46.9806  133.3697 C   0  0  0  0  0  0  0  0  0  0  0  0
   10.6737   46.4784  132.5815 C   0  0  0  0  0  0  0  0  0  0  0  0
    9.5537   46.7275  133.4422 N   0  0  0  0  0  0  0  0  0  0  0  0
    8.3822   45.9363  133.6991 C   0  0  0  0  0  0  0  0  0  0  0  0
    7.5638   46.3628  134.5747 O   0  0  0  0  0  0  0  0  0  0  0  0
    8.5080   48.8837  132.0677 N   0  0  0  0  0  0  0  0  0  0  0  0
    9.4105   49.0708  133.1650 C   0  0  0  0  0  0  0  0  0  0  0  0
    9.8824   50.2169  133.3217 O   0  0  0  0  0  0  0  0  0  0  0  0
    8.1657   47.9214  131.9384 H   0  0  0  0  0  0  0  0  0  0  0  0
    8.1414   49.9285  131.1793 C   0  0  0  0  0  0  0  0  0  0  0  0
    8.7056   49.7418  129.8103 C   0  0  0  0  0  0  0  0  0  0  0  0
    9.8220   48.8910  129.6439 N   0  0  0  0  0  0  0  0  0  0  0  0
    8.2332   50.3068  128.7948 O   0  0  0  0  0  0  0  0  0  0  0  0
   10.7733   49.2295  129.4133 H   0  0  0  0  0  0  0  0  0  0  0  0
    9.6857   47.8659  129.7576 H   0  0  0  0  0  0  0  0  0  0  0  0
    6.6944   50.2817  131.1554 C   0  0  0  0  0  0  0  0  0  0  0  0
    6.1280   51.1115  130.0936 C   0  0  0  0  0  0  0  0  0  0  0  0
    5.3723   50.4214  129.0086 C   0  0  0  0  0  0  0  0  0  0  0  0
    4.9546   49.1216  129.6040 N   0  0  0  0  0  0  0  0  0  0  0  0
    4.3518   49.1879  130.4485 H   0  0  0  0  0  0  0  0  0  0  0  0
    4.7974   46.6936  129.3797 N   0  0  0  0  0  0  0  0  0  0  0  0
    5.3872   47.9225  129.0064 C   0  0  0  0  0  0  0  0  0  0  0  0
    6.3156   47.9546  128.1255 N   0  0  0  0  0  0  0  0  0  0  0  0
    5.3808   45.8444  129.5245 H   0  0  0  0  0  0  0  0  0  0  0  0
    3.7644   46.6511  129.5091 H   0  0  0  0  0  0  0  0  0  0  0  0
    6.6813   47.0900  127.6428 H   0  0  0  0  0  0  0  0  0  0  0  0
    8.0944   44.6535  132.9909 C   0  0  0  0  0  0  0  0  0  0  0  0
    8.3778   44.8177  131.5820 N   0  0  0  0  0  0  0  0  0  0  0  0
    7.8705   45.7960  130.7200 C   0  0  0  0  0  0  0  0  0  0  0  0
    7.0836   46.6709  131.1312 O   0  0  0  0  0  0  0  0  0  0  0  0
    9.0518   44.1218  131.1227 H   0  0  0  0  0  0  0  0  0  0  0  0
    8.2140   45.8398  129.3837 O   0  0  0  0  0  0  0  0  0  0  0  0
    7.9785   44.8238  128.4436 C   0  0  0  0  0  0  0  0  0  0  0  0
    8.7533   43.5857  128.6907 C   0  0  0  0  0  0  0  0  0  0  0  0
    9.8369   43.1709  127.9617 C   0  0  0  0  0  0  0  0  0  0  0  0
   10.5259   42.0119  128.2240 C   0  0  0  0  0  0  0  0  0  0  0  0
   10.1012   41.2326  129.2736 C   0  0  0  0  0  0  0  0  0  0  0  0
    9.0047   41.5978  130.0559 C   0  0  0  0  0  0  0  0  0  0  0  0
    8.3599   42.7678  129.7409 C   0  0  0  0  0  0  0  0  0  0  0  0
    8.8628   43.5259  133.5880 C   0  0  0  0  0  0  0  0  0  0  0  0
   10.2915   43.4665  133.2068 C   0  0  0  0  0  0  0  0  0  0  0  0
   11.2920   43.6716  134.1698 C   0  0  0  0  0  0  0  0  0  0  0  0
   12.6236   43.6403  133.8376 C   0  0  0  0  0  0  0  0  0  0  0  0
   13.0484   43.4084  132.5529 C   0  0  0  0  0  0  0  0  0  0  0  0
   12.0833   43.2053  131.5936 C   0  0  0  0  0  0  0  0  0  0  0  0
   10.7236   43.2367  131.9285 C   0  0  0  0  0  0  0  0  0  0  0  0
 23 24  1  0  0  0
 24 25  2  0  0  0
 24 21  1  0  0  0
 21 20  1  0  0  0
 20 19  1  0  0  0
 19 18  1  0  0  0
 18 12  1  0  0  0
 12  8  1  0  0  0
  8  9  1  0  0  0
  9 10  2  0  0  0
  9  1  1  0  0  0
  1  2  1  0  0  0
  2  3  1  0  0  0
  3  4  1  0  0  0
  4  5  1  0  0  0
  5  6  1  0  0  0
  6  7  2  0  0  0
  6 29  1  0  0  0
 29 42  1  0  0  0
 42 43  1  0  0  0
 43 44  2  0  0  0
 44 45  1  0  0  0
 45 46  2  0  0  0
 46 47  1  0  0  0
 47 48  2  0  0  0
 29 30  1  0  0  0
 30 31  1  0  0  0
 31 32  2  0  0  0
 31 34  1  0  0  0
 34 35  1  0  0  0
 35 36  1  0  0  0
 36 37  2  0  0  0
 37 38  1  0  0  0
 38 39  2  0  0  0
 39 40  1  0  0  0
 40 41  2  0  0  0
 12 13  1  0  0  0
 13 14  1  0  0  0
 13 15  2  0  0  0
  5  1  1  0  0  0
 48 43  1  0  0  0
 41 36  1  0  0  0
 23 26  1  0  0  0
 23 27  1  0  0  0
 25 28  1  0  0  0
 21 22  1  0  0  0
  8 11  1  0  0  0
 30 33  1  0  0  0
 14 16  1  0  0  0
 14 17  1  0  0  0
M  END
> <minimizedAffinity>
4.57608

> <CNNscore>
0.3809704781

> <CNNaffinity>
7.8510437012

> <CNN_VS>
2.9910159111

> <CNNaffinity_variance>
0.4270017147

$$$$
[H]N=C(N([H])[H])N([H])C([H])([H])C([H])([H])C([H])([H])[C@]([H])(C(=O)N([H])[H])N([H])C(=O)[C@@]1([H])N(C(=O)[C@@]([H])(N([H])C(=O)OC([H])([H])c2c([H])c([H])c([H])c([H])c2[H])C([H])([H])c2c([H])c([H])c([H])c([H])c2[H])C([H])([H])C([H])([H])C1([H])[H]


 48 50  0  0  0  0  0  0  0  0999 V2000
    7.6536   45.3632  131.7209 C   0  0  0  0  0  0  0  0  0  0  0  0
    7.2871   45.7243  133.1346 C   0  0  0  0  0  0  0  0  0  0  0  0
    8.3031   46.7371  133.5817 C   0  0  0  0  0  0  0  0  0  0  0  0
    9.2195   46.9231  132.4045 C   0  0  0  0  0  0  0  0  0  0  0  0
    9.0516   45.7177  131.6455 N   0  0  0  0  0  0  0  0  0  0  0  0
   10.0140   44.9247  130.9319 C   0  0  0  0  0  0  0  0  0  0  0  0
    9.6058   43.8469  130.3933 O   0  0  0  0  0  0  0  0  0  0  0  0
    7.5253   46.7177  129.5503 N   0  0  0  0  0  0  0  0  0  0  0  0
    6.9203   46.1721  130.7292 C   0  0  0  0  0  0  0  0  0  0  0  0
    5.7061   46.4080  130.9042 O   0  0  0  0  0  0  0  0  0  0  0  0
    8.5348   46.5415  129.4516 H   0  0  0  0  0  0  0  0  0  0  0  0
    6.8102   47.4938  128.6008 C   0  0  0  0  0  0  0  0  0  0  0  0
    5.3745   47.6702  128.9686 C   0  0  0  0  0  0  0  0  0  0  0  0
    4.5354   46.5333  129.0022 N   0  0  0  0  0  0  0  0  0  0  0  0
    4.8748   48.7855  129.2513 O   0  0  0  0  0  0  0  0  0  0  0  0
    3.7861   46.3513  128.3107 H   0  0  0  0  0  0  0  0  0  0  0  0
    4.6735   45.8372  129.7630 H   0  0  0  0  0  0  0  0  0  0  0  0
    7.4543   48.7732  128.1915 C   0  0  0  0  0  0  0  0  0  0  0  0
    8.2100   49.5864  129.1424 C   0  0  0  0  0  0  0  0  0  0  0  0
    7.5024   50.0435  130.3733 C   0  0  0  0  0  0  0  0  0  0  0  0
    8.5389   50.7678  131.1604 N   0  0  0  0  0  0  0  0  0  0  0  0
    8.3468   51.7744  131.3361 H   0  0  0  0  0  0  0  0  0  0  0  0
    9.9588   49.9792  132.9858 N   0  0  0  0  0  0  0  0  0  0  0  0
    9.6773   50.0681  131.6037 C   0  0  0  0  0  0  0  0  0  0  0  0
   10.4522   49.5153  130.7477 N   0  0  0  0  0  0  0  0  0  0  0  0
   10.9303   50.0923  133.3404 H   0  0  0  0  0  0  0  0  0  0  0  0
    9.1745   49.7986  133.6475 H   0  0  0  0  0  0  0  0  0  0  0  0
   11.3192   48.9776  131.0187 H   0  0  0  0  0  0  0  0  0  0  0  0
   11.4509   45.3098  130.8019 C   0  0  0  0  0  0  0  0  0  0  0  0
   12.1772   44.8205  131.9532 N   0  0  0  0  0  0  0  0  0  0  0  0
   12.2679   43.4992  132.4039 C   0  0  0  0  0  0  0  0  0  0  0  0
   11.6944   42.5720  131.7995 O   0  0  0  0  0  0  0  0  0  0  0  0
   12.7163   45.5338  132.5448 H   0  0  0  0  0  0  0  0  0  0  0  0
   12.9910   43.1607  133.5301 O   0  0  0  0  0  0  0  0  0  0  0  0
   12.6145   43.4276  134.8562 C   0  0  0  0  0  0  0  0  0  0  0  0
   11.7792   44.6412  135.0106 C   0  0  0  0  0  0  0  0  0  0  0  0
   10.5584   44.6887  135.6309 C   0  0  0  0  0  0  0  0  0  0  0  0
    9.8145   45.8373  135.7495 C   0  0  0  0  0  0  0  0  0  0  0  0
   10.3274   46.9957  135.2161 C   0  0  0  0  0  0  0  0  0  0  0  0
   11.5651   47.0161  134.5715 C   0  0  0  0  0  0  0  0  0  0  0  0
   12.2577   45.8343  134.4868 C   0  0  0  0  0  0  0  0  0  0  0  0
   12.0277   44.8096  129.5231 C   0  0  0  0  0  0  0  0  0  0  0  0
   11.0383   44.4751  128.4748 C   0  0  0  0  0  0  0  0  0  0  0  0
   10.5743   43.1580  128.3312 C   0  0  0  0  0  0  0  0  0  0  0  0
    9.6711   42.8189  127.3547 C   0  0  0  0  0  0  0  0  0  0  0  0
    9.1745   43.7431  126.4693 C   0  0  0  0  0  0  0  0  0  0  0  0
    9.6169   45.0400  126.5927 C   0  0  0  0  0  0  0  0  0  0  0  0
   10.5386   45.3899  127.5877 C   0  0  0  0  0  0  0  0  0  0  0  0
 23 24  1  0  0  0
 24 25  2  0  0  0
 24 21  1  0  0  0
 21 20  1  0  0  0
 20 19  1  0  0  0
 19 18  1  0  0  0
 18 12  1  0  0  0
 12  8  1  0  0  0
  8  9  1  0  0  0
  9 10  2  0  0  0
  9  1  1  0  0  0
  1  2  1  0  0  0
  2  3  1  0  0  0
  3  4  1  0  0  0
  4  5  1  0  0  0
  5  6  1  0  0  0
  6  7  2  0  0  0
  6 29  1  0  0  0
 29 42  1  0  0  0
 42 43  1  0  0  0
 43 44  2  0  0  0
 44 45  1  0  0  0
 45 46  2  0  0  0
 46 47  1  0  0  0
 47 48  2  0  0  0
 29 30  1  0  0  0
 30 31  1  0  0  0
 31 32  2  0  0  0
 31 34  1  0  0  0
 34 35  1  0  0  0
 35 36  1  0  0  0
 36 37  2  0  0  0
 37 38  1  0  0  0
 38 39  2  0  0  0
 39 40  1  0  0  0
 40 41  2  0  0  0
 12 13  1  0  0  0
 13 14  1  0  0  0
 13 15  2  0  0  0
  5  1  1  0  0  0
 48 43  1  0  0  0
 41 36  1  0  0  0
 23 26  1  0  0  0
 23 27  1  0  0  0
 25 28  1  0  0  0
 21 22  1  0  0  0
  8 11  1  0  0  0
 30 33  1  0  0  0
 14 16  1  0  0  0
 14 17  1  0  0  0
M  END
> <minimizedAffinity>
3.46022

> <CNNscore>
0.3737886548

> <CNNaffinity>
7.8804826736

> <CNN_VS>
2.9456350803

> <CNNaffinity_variance>
0.4109917283

$$$$
[H]N=C(N([H])[H])N([H])C([H])([H])C([H])([H])C([H])([H])[C@]([H])(C(=O)N([H])[H])N([H])C(=O)[C@@]1([H])N(C(=O)[C@@]([H])(N([H])C(=O)OC([H])([H])c2c([H])c([H])c([H])c([H])c2[H])C([H])([H])c2c([H])c([H])c([H])c([H])c2[H])C([H])([H])C([H])([H])C1([H])[H]


 48 50  0  0  0  0  0  0  0  0999 V2000
    8.8950   48.8088  133.0480 C   0  0  0  0  0  0  0  0  0  0  0  0
   10.0981   49.7120  133.0448 C   0  0  0  0  0  0  0  0  0  0  0  0
   11.2547   48.8622  132.5996 C   0  0  0  0  0  0  0  0  0  0  0  0
   10.6724   47.4968  132.3611 C   0  0  0  0  0  0  0  0  0  0  0  0
    9.4764   47.4910  133.1528 N   0  0  0  0  0  0  0  0  0  0  0  0
    8.8919   46.4480  133.9496 C   0  0  0  0  0  0  0  0  0  0  0  0
    7.8479   46.7328  134.6185 O   0  0  0  0  0  0  0  0  0  0  0  0
    8.0528   50.0609  130.9778 N   0  0  0  0  0  0  0  0  0  0  0  0
    8.1401   48.8786  131.7828 C   0  0  0  0  0  0  0  0  0  0  0  0
    7.5360   47.8660  131.3700 O   0  0  0  0  0  0  0  0  0  0  0  0
    8.5265   50.8906  131.3613 H   0  0  0  0  0  0  0  0  0  0  0  0
    7.3248   50.1173  129.7604 C   0  0  0  0  0  0  0  0  0  0  0  0
    6.9031   51.5049  129.4079 C   0  0  0  0  0  0  0  0  0  0  0  0
    7.0734   51.9512  128.0776 N   0  0  0  0  0  0  0  0  0  0  0  0
    6.4017   52.2979  130.2405 O   0  0  0  0  0  0  0  0  0  0  0  0
    7.7729   52.6606  127.7944 H   0  0  0  0  0  0  0  0  0  0  0  0
    6.4636   51.5481  127.3373 H   0  0  0  0  0  0  0  0  0  0  0  0
    7.9328   49.3968  128.6070 C   0  0  0  0  0  0  0  0  0  0  0  0
    7.3334   48.1786  128.0653 C   0  0  0  0  0  0  0  0  0  0  0  0
    5.8713   48.2016  127.7716 C   0  0  0  0  0  0  0  0  0  0  0  0
    5.2146   48.1468  129.1074 N   0  0  0  0  0  0  0  0  0  0  0  0
    4.9518   49.0659  129.5163 H   0  0  0  0  0  0  0  0  0  0  0  0
    6.0935   46.1383  130.1860 N   0  0  0  0  0  0  0  0  0  0  0  0
    4.9972   46.8952  129.7143 C   0  0  0  0  0  0  0  0  0  0  0  0
    3.8029   46.4505  129.8349 N   0  0  0  0  0  0  0  0  0  0  0  0
    6.1371   45.1102  130.0324 H   0  0  0  0  0  0  0  0  0  0  0  0
    6.8617   46.6281  130.6915 H   0  0  0  0  0  0  0  0  0  0  0  0
    3.5770   45.5207  130.2807 H   0  0  0  0  0  0  0  0  0  0  0  0
    9.4542   45.0666  134.0225 C   0  0  0  0  0  0  0  0  0  0  0  0
    9.0482   44.3284  132.8467 N   0  0  0  0  0  0  0  0  0  0  0  0
    8.8227   42.9516  132.7418 C   0  0  0  0  0  0  0  0  0  0  0  0
    8.9562   42.2005  133.7276 O   0  0  0  0  0  0  0  0  0  0  0  0
    8.8959   44.8778  131.9388 H   0  0  0  0  0  0  0  0  0  0  0  0
    8.4444   42.3631  131.5517 O   0  0  0  0  0  0  0  0  0  0  0  0
    7.9535   43.0390  130.4233 C   0  0  0  0  0  0  0  0  0  0  0  0
    8.9952   43.7575  129.6533 C   0  0  0  0  0  0  0  0  0  0  0  0
    9.8807   43.1754  128.7846 C   0  0  0  0  0  0  0  0  0  0  0  0
   10.8347   43.8803  128.0918 C   0  0  0  0  0  0  0  0  0  0  0  0
   10.8987   45.2398  128.2846 C   0  0  0  0  0  0  0  0  0  0  0  0
   10.0263   45.8946  129.1551 C   0  0  0  0  0  0  0  0  0  0  0  0
    9.0965   45.1322  129.8168 C   0  0  0  0  0  0  0  0  0  0  0  0
   10.9350   45.0968  134.1799 C   0  0  0  0  0  0  0  0  0  0  0  0
   11.7031   44.6687  132.9896 C   0  0  0  0  0  0  0  0  0  0  0  0
   11.7867   43.3092  132.6502 C   0  0  0  0  0  0  0  0  0  0  0  0
   12.5084   42.8853  131.5622 C   0  0  0  0  0  0  0  0  0  0  0  0
   13.1847   43.7618  130.7505 C   0  0  0  0  0  0  0  0  0  0  0  0
   13.1160   45.0992  131.0661 C   0  0  0  0  0  0  0  0  0  0  0  0
   12.3808   45.5357  132.1756 C   0  0  0  0  0  0  0  0  0  0  0  0
 23 24  1  0  0  0
 24 25  2  0  0  0
 24 21  1  0  0  0
 21 20  1  0  0  0
 20 19  1  0  0  0
 19 18  1  0  0  0
 18 12  1  0  0  0
 12  8  1  0  0  0
  8  9  1  0  0  0
  9 10  2  0  0  0
  9  1  1  0  0  0
  1  2  1  0  0  0
  2  3  1  0  0  0
  3  4  1  0  0  0
  4  5  1  0  0  0
  5  6  1  0  0  0
  6  7  2  0  0  0
  6 29  1  0  0  0
 29 42  1  0  0  0
 42 43  1  0  0  0
 43 44  2  0  0  0
 44 45  1  0  0  0
 45 46  2  0  0  0
 46 47  1  0  0  0
 47 48  2  0  0  0
 29 30  1  0  0  0
 30 31  1  0  0  0
 31 32  2  0  0  0
 31 34  1  0  0  0
 34 35  1  0  0  0
 35 36  1  0  0  0
 36 37  2  0  0  0
 37 38  1  0  0  0
 38 39  2  0  0  0
 39 40  1  0  0  0
 40 41  2  0  0  0
 12 13  1  0  0  0
 13 14  1  0  0  0
 13 15  2  0  0  0
  5  1  1  0  0  0
 48 43  1  0  0  0
 41 36  1  0  0  0
 23 26  1  0  0  0
 23 27  1  0  0  0
 25 28  1  0  0  0
 21 22  1  0  0  0
  8 11  1  0  0  0
 30 33  1  0  0  0
 14 16  1  0  0  0
 14 17  1  0  0  0
M  END
> <minimizedAffinity>
-1.01923

> <CNNscore>
0.3726406693

> <CNNaffinity>
7.8444700241

> <CNN_VS>
2.9231686592

> <CNNaffinity_variance>
0.4895640314

$$$$
[H]N=C(N([H])[H])N([H])C([H])([H])C([H])([H])C([H])([H])[C@]([H])(C(=O)N([H])[H])N([H])C(=O)[C@@]1([H])N(C(=O)[C@@]([H])(N([H])C(=O)OC([H])([H])c2c([H])c([H])c([H])c([H])c2[H])C([H])([H])c2c([H])c([H])c([H])c([H])c2[H])C([H])([H])C([H])([H])C1([H])[H]


 48 50  0  0  0  0  0  0  0  0999 V2000
   12.9003   45.3655  130.8235 C   0  0  0  0  0  0  0  0  0  0  0  0
   13.5271   44.2974  131.6776 C   0  0  0  0  0  0  0  0  0  0  0  0
   12.4228   43.7519  132.5382 C   0  0  0  0  0  0  0  0  0  0  0  0
   11.1964   44.5279  132.1456 C   0  0  0  0  0  0  0  0  0  0  0  0
   11.7222   45.7335  131.5735 N   0  0  0  0  0  0  0  0  0  0  0  0
   11.2640   47.0912  131.6783 C   0  0  0  0  0  0  0  0  0  0  0  0
   11.9654   47.9943  131.1208 O   0  0  0  0  0  0  0  0  0  0  0  0
   11.1063   44.5271  129.1982 N   0  0  0  0  0  0  0  0  0  0  0  0
   12.4670   44.8495  129.5114 C   0  0  0  0  0  0  0  0  0  0  0  0
   13.3129   44.6757  128.6087 O   0  0  0  0  0  0  0  0  0  0  0  0
   10.4373   44.6421  129.9721 H   0  0  0  0  0  0  0  0  0  0  0  0
   10.6992   44.0325  127.9313 C   0  0  0  0  0  0  0  0  0  0  0  0
    9.7043   42.9253  128.0405 C   0  0  0  0  0  0  0  0  0  0  0  0
    9.4009   42.4060  129.3195 N   0  0  0  0  0  0  0  0  0  0  0  0
    9.1213   42.4315  127.0456 O   0  0  0  0  0  0  0  0  0  0  0  0
    9.6901   41.4649  129.6413 H   0  0  0  0  0  0  0  0  0  0  0  0
    8.8556   42.9982  129.9787 H   0  0  0  0  0  0  0  0  0  0  0  0
   10.2984   45.0615  126.9315 C   0  0  0  0  0  0  0  0  0  0  0  0
    9.6463   46.3058  127.3354 C   0  0  0  0  0  0  0  0  0  0  0  0
    9.1256   46.3898  128.7305 C   0  0  0  0  0  0  0  0  0  0  0  0
    7.9339   47.2785  128.6384 N   0  0  0  0  0  0  0  0  0  0  0  0
    8.0808   48.1753  128.1331 H   0  0  0  0  0  0  0  0  0  0  0  0
    6.7297   46.1807  130.4590 N   0  0  0  0  0  0  0  0  0  0  0  0
    6.7216   46.8635  129.2216 C   0  0  0  0  0  0  0  0  0  0  0  0
    5.6163   47.1091  128.6243 N   0  0  0  0  0  0  0  0  0  0  0  0
    6.1110   45.3597  130.6189 H   0  0  0  0  0  0  0  0  0  0  0  0
    7.3686   46.5131  131.2119 H   0  0  0  0  0  0  0  0  0  0  0  0
    4.6768   46.8237  129.0115 H   0  0  0  0  0  0  0  0  0  0  0  0
   10.0180   47.4764  132.4056 C   0  0  0  0  0  0  0  0  0  0  0  0
   10.0623   46.9267  133.7428 N   0  0  0  0  0  0  0  0  0  0  0  0
    9.1989   47.2071  134.8074 C   0  0  0  0  0  0  0  0  0  0  0  0
    8.2502   48.0046  134.6741 O   0  0  0  0  0  0  0  0  0  0  0  0
   10.8370   46.2207  133.9682 H   0  0  0  0  0  0  0  0  0  0  0  0
    9.3541   46.6190  136.0467 O   0  0  0  0  0  0  0  0  0  0  0  0
    9.7084   45.2805  136.2797 C   0  0  0  0  0  0  0  0  0  0  0  0
    9.4151   44.3753  135.1445 C   0  0  0  0  0  0  0  0  0  0  0  0
   10.0908   43.2179  134.8594 C   0  0  0  0  0  0  0  0  0  0  0  0
    9.7869   42.4080  133.7924 C   0  0  0  0  0  0  0  0  0  0  0  0
    8.7498   42.7839  132.9722 C   0  0  0  0  0  0  0  0  0  0  0  0
    8.0209   43.9507  133.2067 C   0  0  0  0  0  0  0  0  0  0  0  0
    8.3757   44.7156  134.2896 C   0  0  0  0  0  0  0  0  0  0  0  0
    9.8362   48.9547  132.4146 C   0  0  0  0  0  0  0  0  0  0  0  0
    8.8482   49.4731  131.4425 C   0  0  0  0  0  0  0  0  0  0  0  0
    9.2327   49.7570  130.1226 C   0  0  0  0  0  0  0  0  0  0  0  0
    8.3396   50.2563  129.2076 C   0  0  0  0  0  0  0  0  0  0  0  0
    7.0285   50.5046  129.5304 C   0  0  0  0  0  0  0  0  0  0  0  0
    6.6312   50.2335  130.8194 C   0  0  0  0  0  0  0  0  0  0  0  0
    7.5397   49.7242  131.7560 C   0  0  0  0  0  0  0  0  0  0  0  0
 23 24  1  0  0  0
 24 25  2  0  0  0
 24 21  1  0  0  0
 21 20  1  0  0  0
 20 19  1  0  0  0
 19 18  1  0  0  0
 18 12  1  0  0  0
 12  8  1  0  0  0
  8  9  1  0  0  0
  9 10  2  0  0  0
  9  1  1  0  0  0
  1  2  1  0  0  0
  2  3  1  0  0  0
  3  4  1  0  0  0
  4  5  1  0  0  0
  5  6  1  0  0  0
  6  7  2  0  0  0
  6 29  1  0  0  0
 29 42  1  0  0  0
 42 43  1  0  0  0
 43 44  2  0  0  0
 44 45  1  0  0  0
 45 46  2  0  0  0
 46 47  1  0  0  0
 47 48  2  0  0  0
 29 30  1  0  0  0
 30 31  1  0  0  0
 31 32  2  0  0  0
 31 34  1  0  0  0
 34 35  1  0  0  0
 35 36  1  0  0  0
 36 37  2  0  0  0
 37 38  1  0  0  0
 38 39  2  0  0  0
 39 40  1  0  0  0
 40 41  2  0  0  0
 12 13  1  0  0  0
 13 14  1  0  0  0
 13 15  2  0  0  0
  5  1  1  0  0  0
 48 43  1  0  0  0
 41 36  1  0  0  0
 23 26  1  0  0  0
 23 27  1  0  0  0
 25 28  1  0  0  0
 21 22  1  0  0  0
  8 11  1  0  0  0
 30 33  1  0  0  0
 14 16  1  0  0  0
 14 17  1  0  0  0
M  END
> <minimizedAffinity>
5.60471

> <CNNscore>
0.3415887654

> <CNNaffinity>
7.5136642456

> <CNN_VS>
2.5665833950

> <CNNaffinity_variance>
0.3800779283

$$$$
[H]c1c([H])c(C(F)(F)F)c([H])c([H])c1-c1nc(N2C([H])([H])C([H])([H])C([H])(N3C([H])([H])C([H])([H])OC([H])([H])C3([H])[H])C([H])([H])C2([H])[H])nc(N2C([H])([H])C([H])([H])C([H])(N3C([H])([H])C([H])([H])N(C([H])([H])[H])C([H])([H])C3([H])[H])C([H])([H])C2([H])[H])n1


 41 46  0  0  0  0  0  0  0  0999 V2000
    9.4822   45.3761  131.2062 C   0  0  0  0  0  0  0  0  0  0  0  0
   10.2149   45.6929  132.3115 N   0  0  0  0  0  0  0  0  0  0  0  0
   10.3038   46.9557  132.7186 C   0  0  0  0  0  0  0  0  0  0  0  0
    9.6725   47.9167  132.0510 N   0  0  0  0  0  0  0  0  0  0  0  0
    8.9245   47.6651  130.9442 C   0  0  0  0  0  0  0  0  0  0  0  0
    8.8628   46.3853  130.5636 N   0  0  0  0  0  0  0  0  0  0  0  0
    9.0728   41.3850  129.8756 C   0  0  0  0  0  0  0  0  0  0  0  0
    8.1223   41.9008  130.7211 C   0  0  0  0  0  0  0  0  0  0  0  0
    8.2629   43.2177  131.1281 C   0  0  0  0  0  0  0  0  0  0  0  0
    9.2918   44.0246  130.7305 C   0  0  0  0  0  0  0  0  0  0  0  0
   10.2350   43.4451  129.8626 C   0  0  0  0  0  0  0  0  0  0  0  0
   10.1337   42.1466  129.4380 C   0  0  0  0  0  0  0  0  0  0  0  0
    8.9862   39.9841  129.3916 C   0  0  0  0  0  0  0  0  0  0  0  0
    7.7533   39.4337  129.5202 F   0  0  0  0  0  0  0  0  0  0  0  0
    9.9753   39.2429  130.0703 F   0  0  0  0  0  0  0  0  0  0  0  0
    9.4331   40.0130  128.0716 F   0  0  0  0  0  0  0  0  0  0  0  0
   11.1477   47.2930  133.8370 N   0  0  0  0  0  0  0  0  0  0  0  0
   10.9886   48.5177  134.5435 C   0  0  0  0  0  0  0  0  0  0  0  0
   12.3191   49.1284  134.8837 C   0  0  0  0  0  0  0  0  0  0  0  0
   13.1553   48.0661  135.5632 C   0  0  0  0  0  0  0  0  0  0  0  0
   13.4516   47.0283  134.4639 C   0  0  0  0  0  0  0  0  0  0  0  0
   12.1483   46.3208  134.2386 C   0  0  0  0  0  0  0  0  0  0  0  0
   14.3142   48.5033  136.2235 N   0  0  0  0  0  0  0  0  0  0  0  0
   14.1364   49.1373  137.4775 C   0  0  0  0  0  0  0  0  0  0  0  0
   14.7011   48.4342  138.6524 C   0  0  0  0  0  0  0  0  0  0  0  0
   15.8839   47.6770  138.3957 N   0  0  0  0  0  0  0  0  0  0  0  0
   17.0974   48.4665  138.4863 C   0  0  0  0  0  0  0  0  0  0  0  0
   15.8501   46.8588  137.2179 C   0  0  0  0  0  0  0  0  0  0  0  0
   15.4804   47.7097  136.0437 C   0  0  0  0  0  0  0  0  0  0  0  0
    8.2782   48.7424  130.2580 N   0  0  0  0  0  0  0  0  0  0  0  0
    7.8767   48.4427  128.8934 C   0  0  0  0  0  0  0  0  0  0  0  0
    7.4787   49.6035  128.0673 C   0  0  0  0  0  0  0  0  0  0  0  0
    7.5179   50.9140  128.7765 C   0  0  0  0  0  0  0  0  0  0  0  0
    7.0202   50.7528  130.1665 C   0  0  0  0  0  0  0  0  0  0  0  0
    8.1018   49.9833  130.9361 C   0  0  0  0  0  0  0  0  0  0  0  0
    6.8420   51.9476  128.0094 N   0  0  0  0  0  0  0  0  0  0  0  0
    7.4083   51.9638  126.6969 C   0  0  0  0  0  0  0  0  0  0  0  0
    7.5501   53.3410  126.1025 C   0  0  0  0  0  0  0  0  0  0  0  0
    6.3884   54.0424  126.4902 O   0  0  0  0  0  0  0  0  0  0  0  0
    6.5627   54.3889  127.8170 C   0  0  0  0  0  0  0  0  0  0  0  0
    6.9013   53.2074  128.7028 C   0  0  0  0  0  0  0  0  0  0  0  0
  7 13  1  0  0  0
 13 14  1  0  0  0
 13 15  1  0  0  0
 13 16  1  0  0  0
  7  8  2  0  0  0
  8  9  1  0  0  0
  9 10  2  0  0  0
 10  1  1  0  0  0
  1  2  2  0  0  0
  2  3  1  0  0  0
  3 17  1  0  0  0
 17 18  1  0  0  0
 18 19  1  0  0  0
 19 20  1  0  0  0
 20 23  1  0  0  0
 23 24  1  0  0  0
 24 25  1  0  0  0
 25 26  1  0  0  0
 26 27  1  0  0  0
 26 28  1  0  0  0
 28 29  1  0  0  0
 20 21  1  0  0  0
 21 22  1  0  0  0
  3  4  2  0  0  0
  4  5  1  0  0  0
  5 30  1  0  0  0
 30 31  1  0  0  0
 31 32  1  0  0  0
 32 33  1  0  0  0
 33 36  1  0  0  0
 36 37  1  0  0  0
 37 38  1  0  0  0
 38 39  1  0  0  0
 39 40  1  0  0  0
 40 41  1  0  0  0
 33 34  1  0  0  0
 34 35  1  0  0  0
  5  6  2  0  0  0
 10 11  1  0  0  0
 11 12  2  0  0  0
 12  7  1  0  0  0
  6  1  1  0  0  0
 22 17  1  0  0  0
 35 30  1  0  0  0
 29 23  1  0  0  0
 41 36  1  0  0  0
M  END
> <minimizedAffinity>
44.96410

> <CNNscore>
0.4086148441

> <CNNaffinity>
7.5423712730

> <CNN_VS>
3.0819249153

> <CNNaffinity_variance>
1.3006784916

$$$$
[H]c1c([H])c(C(F)(F)F)c([H])c([H])c1-c1nc(N2C([H])([H])C([H])([H])C([H])(N3C([H])([H])C([H])([H])OC([H])([H])C3([H])[H])C([H])([H])C2([H])[H])nc(N2C([H])([H])C([H])([H])C([H])(N3C([H])([H])C([H])([H])N(C([H])([H])[H])C([H])([H])C3([H])[H])C([H])([H])C2([H])[H])n1


 41 46  0  0  0  0  0  0  0  0999 V2000
    9.9733   45.0719  131.7785 C   0  0  0  0  0  0  0  0  0  0  0  0
    9.5926   46.2910  131.3015 N   0  0  0  0  0  0  0  0  0  0  0  0
    9.2438   46.4337  130.0262 C   0  0  0  0  0  0  0  0  0  0  0  0
    9.2595   45.3843  129.2100 N   0  0  0  0  0  0  0  0  0  0  0  0
    9.6262   44.1431  129.6254 C   0  0  0  0  0  0  0  0  0  0  0  0
    9.9741   44.0404  130.9119 N   0  0  0  0  0  0  0  0  0  0  0  0
   10.8227   44.2766  135.8422 C   0  0  0  0  0  0  0  0  0  0  0  0
   11.6480   43.7514  134.8791 C   0  0  0  0  0  0  0  0  0  0  0  0
   11.3652   44.0419  133.5543 C   0  0  0  0  0  0  0  0  0  0  0  0
   10.3146   44.8224  133.1607 C   0  0  0  0  0  0  0  0  0  0  0  0
    9.5037   45.3360  134.1890 C   0  0  0  0  0  0  0  0  0  0  0  0
    9.7477   45.0712  135.5107 C   0  0  0  0  0  0  0  0  0  0  0  0
   11.0657   44.0146  137.2832 C   0  0  0  0  0  0  0  0  0  0  0  0
   10.2303   44.6882  138.1125 F   0  0  0  0  0  0  0  0  0  0  0  0
   12.4215   44.3043  137.5404 F   0  0  0  0  0  0  0  0  0  0  0  0
   10.9821   42.6315  137.4342 F   0  0  0  0  0  0  0  0  0  0  0  0
    8.9241   47.7407  129.5100 N   0  0  0  0  0  0  0  0  0  0  0  0
    9.2290   48.9222  130.2417 C   0  0  0  0  0  0  0  0  0  0  0  0
    8.1101   49.9220  130.1548 C   0  0  0  0  0  0  0  0  0  0  0  0
    7.7690   50.1082  128.6924 C   0  0  0  0  0  0  0  0  0  0  0  0
    7.1526   48.7665  128.2528 C   0  0  0  0  0  0  0  0  0  0  0  0
    8.3070   47.8102  128.1977 C   0  0  0  0  0  0  0  0  0  0  0  0
    6.9602   51.2089  128.3694 N   0  0  0  0  0  0  0  0  0  0  0  0
    6.8280   52.2179  129.3546 C   0  0  0  0  0  0  0  0  0  0  0  0
    7.3851   53.5462  129.0101 C   0  0  0  0  0  0  0  0  0  0  0  0
    7.3272   53.8878  127.6251 N   0  0  0  0  0  0  0  0  0  0  0  0
    6.0672   54.4943  127.2393 C   0  0  0  0  0  0  0  0  0  0  0  0
    7.7388   52.8566  126.7168 C   0  0  0  0  0  0  0  0  0  0  0  0
    6.9588   51.6126  127.0058 C   0  0  0  0  0  0  0  0  0  0  0  0
    9.6369   43.0529  128.6977 N   0  0  0  0  0  0  0  0  0  0  0  0
    9.4245   41.7437  129.2929 C   0  0  0  0  0  0  0  0  0  0  0  0
    9.7179   40.5834  128.4233 C   0  0  0  0  0  0  0  0  0  0  0  0
   10.1593   40.9361  127.0439 C   0  0  0  0  0  0  0  0  0  0  0  0
    9.3765   42.0943  126.5423 C   0  0  0  0  0  0  0  0  0  0  0  0
    9.8639   43.3255  127.3176 C   0  0  0  0  0  0  0  0  0  0  0  0
   10.1415   39.7727  126.1723 N   0  0  0  0  0  0  0  0  0  0  0  0
   11.4799   39.5311  125.7322 C   0  0  0  0  0  0  0  0  0  0  0  0
   11.5856   39.0675  124.3025 C   0  0  0  0  0  0  0  0  0  0  0  0
   10.4998   38.1871  124.1084 O   0  0  0  0  0  0  0  0  0  0  0  0
    9.3735   38.9765  123.9698 C   0  0  0  0  0  0  0  0  0  0  0  0
    9.1858   39.9544  125.1116 C   0  0  0  0  0  0  0  0  0  0  0  0
  7 13  1  0  0  0
 13 14  1  0  0  0
 13 15  1  0  0  0
 13 16  1  0  0  0
  7  8  2  0  0  0
  8  9  1  0  0  0
  9 10  2  0  0  0
 10  1  1  0  0  0
  1  2  2  0  0  0
  2  3  1  0  0  0
  3 17  1  0  0  0
 17 18  1  0  0  0
 18 19  1  0  0  0
 19 20  1  0  0  0
 20 23  1  0  0  0
 23 24  1  0  0  0
 24 25  1  0  0  0
 25 26  1  0  0  0
 26 27  1  0  0  0
 26 28  1  0  0  0
 28 29  1  0  0  0
 20 21  1  0  0  0
 21 22  1  0  0  0
  3  4  2  0  0  0
  4  5  1  0  0  0
  5 30  1  0  0  0
 30 31  1  0  0  0
 31 32  1  0  0  0
 32 33  1  0  0  0
 33 36  1  0  0  0
 36 37  1  0  0  0
 37 38  1  0  0  0
 38 39  1  0  0  0
 39 40  1  0  0  0
 40 41  1  0  0  0
 33 34  1  0  0  0
 34 35  1  0  0  0
  5  6  2  0  0  0
 10 11  1  0  0  0
 11 12  2  0  0  0
 12  7  1  0  0  0
  6  1  1  0  0  0
 22 17  1  0  0  0
 35 30  1  0  0  0
 29 23  1  0  0  0
 41 36  1  0  0  0
M  END
> <minimizedAffinity>
43.57272

> <CNNscore>
0.4004358947

> <CNNaffinity>
7.7865343094

> <CNN_VS>
3.1180078983

> <CNNaffinity_variance>
1.6287368536

$$$$
[H]c1c([H])c(C(F)(F)F)c([H])c([H])c1-c1nc(N2C([H])([H])C([H])([H])C([H])(N3C([H])([H])C([H])([H])OC([H])([H])C3([H])[H])C([H])([H])C2([H])[H])nc(N2C([H])([H])C([H])([H])C([H])(N3C([H])([H])C([H])([H])N(C([H])([H])[H])C([H])([H])C3([H])[H])C([H])([H])C2([H])[H])n1


 41 46  0  0  0  0  0  0  0  0999 V2000
    9.5723   45.6207  131.8511 C   0  0  0  0  0  0  0  0  0  0  0  0
    9.2295   46.8037  131.2664 N   0  0  0  0  0  0  0  0  0  0  0  0
    8.9981   46.8638  129.9583 C   0  0  0  0  0  0  0  0  0  0  0  0
    9.0948   45.7665  129.2138 N   0  0  0  0  0  0  0  0  0  0  0  0
    9.4294   44.5575  129.7372 C   0  0  0  0  0  0  0  0  0  0  0  0
    9.6587   44.5381  131.0539 N   0  0  0  0  0  0  0  0  0  0  0  0
   10.0388   45.1324  136.0237 C   0  0  0  0  0  0  0  0  0  0  0  0
   10.7183   44.2898  135.1794 C   0  0  0  0  0  0  0  0  0  0  0  0
   10.5691   44.4805  133.8152 C   0  0  0  0  0  0  0  0  0  0  0  0
    9.7871   45.4605  133.2714 C   0  0  0  0  0  0  0  0  0  0  0  0
    9.1161   46.2961  134.1827 C   0  0  0  0  0  0  0  0  0  0  0  0
    9.2351   46.1401  135.5384 C   0  0  0  0  0  0  0  0  0  0  0  0
   10.1538   44.9939  137.4975 C   0  0  0  0  0  0  0  0  0  0  0  0
   11.1823   44.2052  137.8965 F   0  0  0  0  0  0  0  0  0  0  0  0
    8.9100   44.5316  137.9746 F   0  0  0  0  0  0  0  0  0  0  0  0
   10.2425   46.2939  137.9924 F   0  0  0  0  0  0  0  0  0  0  0  0
    8.7192   48.1327  129.3349 N   0  0  0  0  0  0  0  0  0  0  0  0
    9.2029   49.3521  129.8856 C   0  0  0  0  0  0  0  0  0  0  0  0
    8.1627   50.4345  129.8128 C   0  0  0  0  0  0  0  0  0  0  0  0
    7.6585   50.4961  128.3874 C   0  0  0  0  0  0  0  0  0  0  0  0
    6.8904   49.1770  128.1790 C   0  0  0  0  0  0  0  0  0  0  0  0
    7.9514   48.1195  128.1027 C   0  0  0  0  0  0  0  0  0  0  0  0
    6.9036   51.6254  128.0344 N   0  0  0  0  0  0  0  0  0  0  0  0
    6.7916   52.6503  129.0057 C   0  0  0  0  0  0  0  0  0  0  0  0
    7.4110   53.9504  128.6598 C   0  0  0  0  0  0  0  0  0  0  0  0
    7.3982   54.2782  127.2703 N   0  0  0  0  0  0  0  0  0  0  0  0
    6.1735   54.9317  126.8496 C   0  0  0  0  0  0  0  0  0  0  0  0
    7.7867   53.2204  126.3826 C   0  0  0  0  0  0  0  0  0  0  0  0
    6.9494   52.0131  126.6669 C   0  0  0  0  0  0  0  0  0  0  0  0
    9.5317   43.4126  128.8840 N   0  0  0  0  0  0  0  0  0  0  0  0
    9.2901   42.1386  129.5413 C   0  0  0  0  0  0  0  0  0  0  0  0
    9.6703   40.9330  128.7731 C   0  0  0  0  0  0  0  0  0  0  0  0
   10.2180   41.2084  127.4144 C   0  0  0  0  0  0  0  0  0  0  0  0
    9.4624   42.3182  126.7792 C   0  0  0  0  0  0  0  0  0  0  0  0
    9.8670   43.6040  127.5123 C   0  0  0  0  0  0  0  0  0  0  0  0
   10.2882   39.9934  126.6193 N   0  0  0  0  0  0  0  0  0  0  0  0
   11.6501   39.7991  126.2306 C   0  0  0  0  0  0  0  0  0  0  0  0
   11.8226   39.2532  124.8369 C   0  0  0  0  0  0  0  0  0  0  0  0
   10.7917   38.3036  124.6717 O   0  0  0  0  0  0  0  0  0  0  0  0
    9.6293   39.0192  124.4533 C   0  0  0  0  0  0  0  0  0  0  0  0
    9.3559   40.0549  125.5246 C   0  0  0  0  0  0  0  0  0  0  0  0
  7 13  1  0  0  0
 13 14  1  0  0  0
 13 15  1  0  0  0
 13 16  1  0  0  0
  7  8  2  0  0  0
  8  9  1  0  0  0
  9 10  2  0  0  0
 10  1  1  0  0  0
  1  2  2  0  0  0
  2  3  1  0  0  0
  3 17  1  0  0  0
 17 18  1  0  0  0
 18 19  1  0  0  0
 19 20  1  0  0  0
 20 23  1  0  0  0
 23 24  1  0  0  0
 24 25  1  0  0  0
 25 26  1  0  0  0
 26 27  1  0  0  0
 26 28  1  0  0  0
 28 29  1  0  0  0
 20 21  1  0  0  0
 21 22  1  0  0  0
  3  4  2  0  0  0
  4  5  1  0  0  0
  5 30  1  0  0  0
 30 31  1  0  0  0
 31 32  1  0  0  0
 32 33  1  0  0  0
 33 36  1  0  0  0
 36 37  1  0  0  0
 37 38  1  0  0  0
 38 39  1  0  0  0
 39 40  1  0  0  0
 40 41  1  0  0  0
 33 34  1  0  0  0
 34 35  1  0  0  0
  5  6  2  0  0  0
 10 11  1  0  0  0
 11 12  2  0  0  0
 12  7  1  0  0  0
  6  1  1  0  0  0
 22 17  1  0  0  0
 35 30  1  0  0  0
 29 23  1  0  0  0
 41 36  1  0  0  0
M  END
> <minimizedAffinity>
39.31773

> <CNNscore>
0.3767093718

> <CNNaffinity>
7.7901687622

> <CNN_VS>
2.9346296787

> <CNNaffinity_variance>
2.2366750240

$$$$
[H]c1c([H])c(C(F)(F)F)c([H])c([H])c1-c1nc(N2C([H])([H])C([H])([H])C([H])(N3C([H])([H])C([H])([H])OC([H])([H])C3([H])[H])C([H])([H])C2([H])[H])nc(N2C([H])([H])C([H])([H])C([H])(N3C([H])([H])C([H])([H])N(C([H])([H])[H])C([H])([H])C3([H])[H])C([H])([H])C2([H])[H])n1


 41 46  0  0  0  0  0  0  0  0999 V2000
    9.4676   45.2383  129.7953 C   0  0  0  0  0  0  0  0  0  0  0  0
    8.7447   46.3097  129.3614 N   0  0  0  0  0  0  0  0  0  0  0  0
    8.7614   47.4513  130.0432 C   0  0  0  0  0  0  0  0  0  0  0  0
    9.4894   47.5548  131.1508 N   0  0  0  0  0  0  0  0  0  0  0  0
   10.2335   46.5246  131.6332 C   0  0  0  0  0  0  0  0  0  0  0  0
   10.1876   45.3929  130.9234 N   0  0  0  0  0  0  0  0  0  0  0  0
    9.8480   41.6038  127.6709 C   0  0  0  0  0  0  0  0  0  0  0  0
    9.5416   41.5590  129.0084 C   0  0  0  0  0  0  0  0  0  0  0  0
    9.3997   42.7616  129.6815 C   0  0  0  0  0  0  0  0  0  0  0  0
    9.5454   43.9822  129.0844 C   0  0  0  0  0  0  0  0  0  0  0  0
    9.8566   43.9688  127.7126 C   0  0  0  0  0  0  0  0  0  0  0  0
   10.0073   42.8020  127.0108 C   0  0  0  0  0  0  0  0  0  0  0  0
   10.0096   40.3569  126.8813 C   0  0  0  0  0  0  0  0  0  0  0  0
    9.0968   40.2132  125.8886 F   0  0  0  0  0  0  0  0  0  0  0  0
    9.9854   39.2783  127.7893 F   0  0  0  0  0  0  0  0  0  0  0  0
   11.3225   40.3744  126.4136 F   0  0  0  0  0  0  0  0  0  0  0  0
    7.9292   48.5510  129.6249 N   0  0  0  0  0  0  0  0  0  0  0  0
    7.2111   48.5127  128.3973 C   0  0  0  0  0  0  0  0  0  0  0  0
    7.2643   49.8390  127.6923 C   0  0  0  0  0  0  0  0  0  0  0  0
    6.8458   50.9053  128.6809 C   0  0  0  0  0  0  0  0  0  0  0  0
    7.9802   50.9508  129.7222 C   0  0  0  0  0  0  0  0  0  0  0  0
    7.8242   49.6897  130.5194 C   0  0  0  0  0  0  0  0  0  0  0  0
    6.5427   52.1700  128.1528 N   0  0  0  0  0  0  0  0  0  0  0  0
    7.0200   53.2946  128.8697 C   0  0  0  0  0  0  0  0  0  0  0  0
    8.0247   54.1340  128.1772 C   0  0  0  0  0  0  0  0  0  0  0  0
    7.8884   54.1967  126.7575 N   0  0  0  0  0  0  0  0  0  0  0  0
    6.9631   55.2237  126.3180 C   0  0  0  0  0  0  0  0  0  0  0  0
    7.6629   52.9405  126.1025 C   0  0  0  0  0  0  0  0  0  0  0  0
    6.4868   52.2651  126.7351 C   0  0  0  0  0  0  0  0  0  0  0  0
   10.9873   46.6902  132.8389 N   0  0  0  0  0  0  0  0  0  0  0  0
   10.4985   47.7337  133.7252 C   0  0  0  0  0  0  0  0  0  0  0  0
   11.4085   48.1276  134.8230 C   0  0  0  0  0  0  0  0  0  0  0  0
   12.6875   47.3638  134.8746 C   0  0  0  0  0  0  0  0  0  0  0  0
   12.4368   45.9342  134.5593 C   0  0  0  0  0  0  0  0  0  0  0  0
   12.1253   45.8613  133.0586 C   0  0  0  0  0  0  0  0  0  0  0  0
   13.3859   47.5917  136.1291 N   0  0  0  0  0  0  0  0  0  0  0  0
   13.0871   48.9199  136.5649 C   0  0  0  0  0  0  0  0  0  0  0  0
   14.2461   49.6330  137.2119 C   0  0  0  0  0  0  0  0  0  0  0  0
   14.9055   48.6567  137.9889 O   0  0  0  0  0  0  0  0  0  0  0  0
   15.6302   47.8764  137.1075 C   0  0  0  0  0  0  0  0  0  0  0  0
   14.7898   47.3118  135.9804 C   0  0  0  0  0  0  0  0  0  0  0  0
  7 13  1  0  0  0
 13 14  1  0  0  0
 13 15  1  0  0  0
 13 16  1  0  0  0
  7  8  2  0  0  0
  8  9  1  0  0  0
  9 10  2  0  0  0
 10  1  1  0  0  0
  1  2  2  0  0  0
  2  3  1  0  0  0
  3 17  1  0  0  0
 17 18  1  0  0  0
 18 19  1  0  0  0
 19 20  1  0  0  0
 20 23  1  0  0  0
 23 24  1  0  0  0
 24 25  1  0  0  0
 25 26  1  0  0  0
 26 27  1  0  0  0
 26 28  1  0  0  0
 28 29  1  0  0  0
 20 21  1  0  0  0
 21 22  1  0  0  0
  3  4  2  0  0  0
  4  5  1  0  0  0
  5 30  1  0  0  0
 30 31  1  0  0  0
 31 32  1  0  0  0
 32 33  1  0  0  0
 33 36  1  0  0  0
 36 37  1  0  0  0
 37 38  1  0  0  0
 38 39  1  0  0  0
 39 40  1  0  0  0
 40 41  1  0  0  0
 33 34  1  0  0  0
 34 35  1  0  0  0
  5  6  2  0  0  0
 10 11  1  0  0  0
 11 12  2  0  0  0
 12  7  1  0  0  0
  6  1  1  0  0  0
 22 17  1  0  0  0
 35 30  1  0  0  0
 29 23  1  0  0  0
 41 36  1  0  0  0
M  END
> <minimizedAffinity>
39.44053

> <CNNscore>
0.3098960519

> <CNNaffinity>
7.4452104568

> <CNN_VS>
2.3072414398

> <CNNaffinity_variance>
1.6243879795

$$$$
[H]c1c([H])c(C(F)(F)F)c([H])c([H])c1-c1nc(N2C([H])([H])C([H])([H])C([H])(N3C([H])([H])C([H])([H])OC([H])([H])C3([H])[H])C([H])([H])C2([H])[H])nc(N2C([H])([H])C([H])([H])C([H])(N3C([H])([H])C([H])([H])N(C([H])([H])[H])C([H])([H])C3([H])[H])C([H])([H])C2([H])[H])n1


 41 46  0  0  0  0  0  0  0  0999 V2000
    9.3986   45.1276  131.7567 C   0  0  0  0  0  0  0  0  0  0  0  0
    9.5439   44.0921  130.8818 N   0  0  0  0  0  0  0  0  0  0  0  0
    9.2780   44.2625  129.5900 C   0  0  0  0  0  0  0  0  0  0  0  0
    8.8735   45.4479  129.1441 N   0  0  0  0  0  0  0  0  0  0  0  0
    8.7123   46.5194  129.9648 C   0  0  0  0  0  0  0  0  0  0  0  0
    8.9849   46.3079  131.2562 N   0  0  0  0  0  0  0  0  0  0  0  0
   10.1743   44.8366  135.9017 C   0  0  0  0  0  0  0  0  0  0  0  0
   10.8711   44.0262  135.0402 C   0  0  0  0  0  0  0  0  0  0  0  0
   10.6181   44.1525  133.6839 C   0  0  0  0  0  0  0  0  0  0  0  0
    9.7178   45.0395  133.1637 C   0  0  0  0  0  0  0  0  0  0  0  0
    9.0344   45.8462  134.0916 C   0  0  0  0  0  0  0  0  0  0  0  0
    9.2538   45.7515  135.4405 C   0  0  0  0  0  0  0  0  0  0  0  0
   10.3957   44.7634  137.3680 C   0  0  0  0  0  0  0  0  0  0  0  0
   10.7438   45.9472  137.9308 F   0  0  0  0  0  0  0  0  0  0  0  0
   11.3585   43.7592  137.5981 F   0  0  0  0  0  0  0  0  0  0  0  0
    9.2218   44.2332  137.9005 F   0  0  0  0  0  0  0  0  0  0  0  0
    9.3528   43.1423  128.6866 N   0  0  0  0  0  0  0  0  0  0  0  0
    8.9462   41.8387  129.0860 C   0  0  0  0  0  0  0  0  0  0  0  0
    9.8929   40.7903  128.5724 C   0  0  0  0  0  0  0  0  0  0  0  0
   10.0663   41.0124  127.0858 C   0  0  0  0  0  0  0  0  0  0  0  0
   10.8303   42.3451  126.9683 C   0  0  0  0  0  0  0  0  0  0  0  0
    9.8292   43.3987  127.3393 C   0  0  0  0  0  0  0  0  0  0  0  0
   10.6711   39.9743  126.3600 N   0  0  0  0  0  0  0  0  0  0  0  0
   11.6810   40.3417  125.4373 C   0  0  0  0  0  0  0  0  0  0  0  0
   13.0468   39.8501  125.7316 C   0  0  0  0  0  0  0  0  0  0  0  0
   13.1075   38.5856  126.3916 N   0  0  0  0  0  0  0  0  0  0  0  0
   13.0735   37.4616  125.4753 C   0  0  0  0  0  0  0  0  0  0  0  0
   12.2045   38.4203  127.4940 C   0  0  0  0  0  0  0  0  0  0  0  0
   10.8142   38.7315  127.0362 C   0  0  0  0  0  0  0  0  0  0  0  0
    8.2608   47.7681  129.4300 N   0  0  0  0  0  0  0  0  0  0  0  0
    8.9408   48.9393  129.9584 C   0  0  0  0  0  0  0  0  0  0  0  0
    8.3117   50.2434  129.6549 C   0  0  0  0  0  0  0  0  0  0  0  0
    7.0819   50.1603  128.8167 C   0  0  0  0  0  0  0  0  0  0  0  0
    7.2552   49.1269  127.7641 C   0  0  0  0  0  0  0  0  0  0  0  0
    7.2075   47.7655  128.4703 C   0  0  0  0  0  0  0  0  0  0  0  0
    6.6955   51.4703  128.3185 N   0  0  0  0  0  0  0  0  0  0  0  0
    7.1972   51.6008  126.9863 C   0  0  0  0  0  0  0  0  0  0  0  0
    7.6976   52.9809  126.6472 C   0  0  0  0  0  0  0  0  0  0  0  0
    6.7929   53.8733  127.2610 O   0  0  0  0  0  0  0  0  0  0  0  0
    7.1038   53.8837  128.6079 C   0  0  0  0  0  0  0  0  0  0  0  0
    7.1293   52.5004  129.2252 C   0  0  0  0  0  0  0  0  0  0  0  0
  7 13  1  0  0  0
 13 14  1  0  0  0
 13 15  1  0  0  0
 13 16  1  0  0  0
  7  8  2  0  0  0
  8  9  1  0  0  0
  9 10  2  0  0  0
 10  1  1  0  0  0
  1  2  2  0  0  0
  2  3  1  0  0  0
  3 17  1  0  0  0
 17 18  1  0  0  0
 18 19  1  0  0  0
 19 20  1  0  0  0
 20 23  1  0  0  0
 23 24  1  0  0  0
 24 25  1  0  0  0
 25 26  1  0  0  0
 26 27  1  0  0  0
 26 28  1  0  0  0
 28 29  1  0  0  0
 20 21  1  0  0  0
 21 22  1  0  0  0
  3  4  2  0  0  0
  4  5  1  0  0  0
  5 30  1  0  0  0
 30 31  1  0  0  0
 31 32  1  0  0  0
 32 33  1  0  0  0
 33 36  1  0  0  0
 36 37  1  0  0  0
 37 38  1  0  0  0
 38 39  1  0  0  0
 39 40  1  0  0  0
 40 41  1  0  0  0
 33 34  1  0  0  0
 34 35  1  0  0  0
  5  6  2  0  0  0
 10 11  1  0  0  0
 11 12  2  0  0  0
 12  7  1  0  0  0
  6  1  1  0  0  0
 22 17  1  0  0  0
 35 30  1  0  0  0
 29 23  1  0  0  0
 41 36  1  0  0  0
M  END
> <minimizedAffinity>
43.35440

> <CNNscore>
0.2915459871

> <CNNaffinity>
7.8221588135

> <CNN_VS>
2.2805190086

> <CNNaffinity_variance>
2.3201873302

$$$$
[H]c1c([H])c(C(F)(F)F)c([H])c([H])c1-c1nc(N2C([H])([H])C([H])([H])C([H])(N3C([H])([H])C([H])([H])OC([H])([H])C3([H])[H])C([H])([H])C2([H])[H])nc(N2C([H])([H])C([H])([H])C([H])(N3C([H])([H])C([H])([H])N(C([H])([H])[H])C([H])([H])C3([H])[H])C([H])([H])C2([H])[H])n1


 41 46  0  0  0  0  0  0  0  0999 V2000
    9.4252   45.6941  131.7471 C   0  0  0  0  0  0  0  0  0  0  0  0
    9.7325   44.7379  130.8251 N   0  0  0  0  0  0  0  0  0  0  0  0
    9.5292   44.9638  129.5305 C   0  0  0  0  0  0  0  0  0  0  0  0
    9.0294   46.1283  129.1281 N   0  0  0  0  0  0  0  0  0  0  0  0
    8.7058   47.1221  129.9972 C   0  0  0  0  0  0  0  0  0  0  0  0
    8.9201   46.8561  131.2895 N   0  0  0  0  0  0  0  0  0  0  0  0
    9.9682   45.2362  135.9139 C   0  0  0  0  0  0  0  0  0  0  0  0
   10.6891   44.4373  135.0615 C   0  0  0  0  0  0  0  0  0  0  0  0
   10.5130   44.6182  133.6992 C   0  0  0  0  0  0  0  0  0  0  0  0
    9.6656   45.5478  133.1649 C   0  0  0  0  0  0  0  0  0  0  0  0
    8.9544   46.3402  134.0841 C   0  0  0  0  0  0  0  0  0  0  0  0
    9.0982   46.1921  135.4384 C   0  0  0  0  0  0  0  0  0  0  0  0
   10.1082   45.1053  137.3863 C   0  0  0  0  0  0  0  0  0  0  0  0
   11.1675   44.3516  137.7725 F   0  0  0  0  0  0  0  0  0  0  0  0
    8.8870   44.6038  137.8817 F   0  0  0  0  0  0  0  0  0  0  0  0
   10.1612   46.4088  137.8772 F   0  0  0  0  0  0  0  0  0  0  0  0
    9.7771   43.9181  128.5703 N   0  0  0  0  0  0  0  0  0  0  0  0
    9.0973   43.8817  127.3211 C   0  0  0  0  0  0  0  0  0  0  0  0
    8.6900   42.4801  126.9621 C   0  0  0  0  0  0  0  0  0  0  0  0
    9.9125   41.5973  127.0860 C   0  0  0  0  0  0  0  0  0  0  0  0
   10.2246   41.5580  128.5942 C   0  0  0  0  0  0  0  0  0  0  0  0
   10.7726   42.9178  128.9113 C   0  0  0  0  0  0  0  0  0  0  0  0
    9.8259   40.3175  126.5163 N   0  0  0  0  0  0  0  0  0  0  0  0
    8.8960   40.1476  125.4613 C   0  0  0  0  0  0  0  0  0  0  0  0
    9.4652   39.8232  124.1330 C   0  0  0  0  0  0  0  0  0  0  0  0
   10.6652   39.0501  124.1594 N   0  0  0  0  0  0  0  0  0  0  0  0
   10.4222   37.6217  124.2260 C   0  0  0  0  0  0  0  0  0  0  0  0
   11.6569   39.4810  125.1021 C   0  0  0  0  0  0  0  0  0  0  0  0
   11.0335   39.5686  126.4597 C   0  0  0  0  0  0  0  0  0  0  0  0
    8.1580   48.3504  129.5068 N   0  0  0  0  0  0  0  0  0  0  0  0
    7.4742   48.2458  128.2283 C   0  0  0  0  0  0  0  0  0  0  0  0
    7.1572   49.5261  127.5585 C   0  0  0  0  0  0  0  0  0  0  0  0
    7.5611   50.7426  128.3194 C   0  0  0  0  0  0  0  0  0  0  0  0
    7.2950   50.5459  129.7673 C   0  0  0  0  0  0  0  0  0  0  0  0
    8.3350   49.5380  130.2742 C   0  0  0  0  0  0  0  0  0  0  0  0
    6.9623   51.9401  127.7530 N   0  0  0  0  0  0  0  0  0  0  0  0
    7.5287   52.1451  126.4565 C   0  0  0  0  0  0  0  0  0  0  0  0
    7.7705   53.5913  126.1099 C   0  0  0  0  0  0  0  0  0  0  0  0
    6.6627   54.2955  126.6284 O   0  0  0  0  0  0  0  0  0  0  0  0
    6.8613   54.3911  127.9931 C   0  0  0  0  0  0  0  0  0  0  0  0
    7.1129   53.0516  128.6548 C   0  0  0  0  0  0  0  0  0  0  0  0
  7 13  1  0  0  0
 13 14  1  0  0  0
 13 15  1  0  0  0
 13 16  1  0  0  0
  7  8  2  0  0  0
  8  9  1  0  0  0
  9 10  2  0  0  0
 10  1  1  0  0  0
  1  2  2  0  0  0
  2  3  1  0  0  0
  3 17  1  0  0  0
 17 18  1  0  0  0
 18 19  1  0  0  0
 19 20  1  0  0  0
 20 23  1  0  0  0
 23 24  1  0  0  0
 24 25  1  0  0  0
 25 26  1  0  0  0
 26 27  1  0  0  0
 26 28  1  0  0  0
 28 29  1  0  0  0
 20 21  1  0  0  0
 21 22  1  0  0  0
  3  4  2  0  0  0
  4  5  1  0  0  0
  5 30  1  0  0  0
 30 31  1  0  0  0
 31 32  1  0  0  0
 32 33  1  0  0  0
 33 36  1  0  0  0
 36 37  1  0  0  0
 37 38  1  0  0  0
 38 39  1  0  0  0
 39 40  1  0  0  0
 40 41  1  0  0  0
 33 34  1  0  0  0
 34 35  1  0  0  0
  5  6  2  0  0  0
 10 11  1  0  0  0
 11 12  2  0  0  0
 12  7  1  0  0  0
  6  1  1  0  0  0
 22 17  1  0  0  0
 35 30  1  0  0  0
 29 23  1  0  0  0
 41 36  1  0  0  0
M  END
> <minimizedAffinity>
41.92987

> <CNNscore>
0.2762009799

> <CNNaffinity>
7.7524538040

> <CNN_VS>
2.1412353516

> <CNNaffinity_variance>
2.4353854656

$$$$
[H]c1c([H])c(C(F)(F)F)c([H])c([H])c1-c1nc(N2C([H])([H])C([H])([H])C([H])(N3C([H])([H])C([H])([H])OC([H])([H])C3([H])[H])C([H])([H])C2([H])[H])nc(N2C([H])([H])C([H])([H])C([H])(N3C([H])([H])C([H])([H])N(C([H])([H])[H])C([H])([H])C3([H])[H])C([H])([H])C2([H])[H])n1


 41 46  0  0  0  0  0  0  0  0999 V2000
   10.5740   43.0488  132.3738 C   0  0  0  0  0  0  0  0  0  0  0  0
   10.2661   44.3538  132.1267 N   0  0  0  0  0  0  0  0  0  0  0  0
   10.7425   45.3160  132.9113 C   0  0  0  0  0  0  0  0  0  0  0  0
   11.5278   45.0093  133.9394 N   0  0  0  0  0  0  0  0  0  0  0  0
   11.8734   43.7286  134.2361 C   0  0  0  0  0  0  0  0  0  0  0  0
   11.3717   42.7896  133.4280 N   0  0  0  0  0  0  0  0  0  0  0  0
    9.2908   39.7469  130.0678 C   0  0  0  0  0  0  0  0  0  0  0  0
    8.6054   40.9318  129.9644 C   0  0  0  0  0  0  0  0  0  0  0  0
    9.0553   42.0082  130.7118 C   0  0  0  0  0  0  0  0  0  0  0  0
   10.1417   41.9509  131.5390 C   0  0  0  0  0  0  0  0  0  0  0  0
   10.8072   40.7133  131.6044 C   0  0  0  0  0  0  0  0  0  0  0  0
   10.3938   39.6244  130.8833 C   0  0  0  0  0  0  0  0  0  0  0  0
    8.8723   38.5515  129.2930 C   0  0  0  0  0  0  0  0  0  0  0  0
    9.2484   38.5820  127.9903 F   0  0  0  0  0  0  0  0  0  0  0  0
    7.4763   38.4209  129.4428 F   0  0  0  0  0  0  0  0  0  0  0  0
    9.3893   37.4557  129.9821 F   0  0  0  0  0  0  0  0  0  0  0  0
   10.3446   46.6840  132.6942 N   0  0  0  0  0  0  0  0  0  0  0  0
    9.2165   47.2425  133.3573 C   0  0  0  0  0  0  0  0  0  0  0  0
    8.4134   48.1112  132.4302 C   0  0  0  0  0  0  0  0  0  0  0  0
    9.3624   49.0934  131.7789 C   0  0  0  0  0  0  0  0  0  0  0  0
   10.2564   48.2361  130.8627 C   0  0  0  0  0  0  0  0  0  0  0  0
   11.1580   47.4839  131.7962 C   0  0  0  0  0  0  0  0  0  0  0  0
    8.7812   50.1802  131.1073 N   0  0  0  0  0  0  0  0  0  0  0  0
    9.0579   50.3003  129.7233 C   0  0  0  0  0  0  0  0  0  0  0  0
    7.9022   50.1504  128.8092 C   0  0  0  0  0  0  0  0  0  0  0  0
    6.6534   50.6054  129.3304 N   0  0  0  0  0  0  0  0  0  0  0  0
    6.4304   52.0233  129.1211 C   0  0  0  0  0  0  0  0  0  0  0  0
    6.3595   50.1978  130.6741 C   0  0  0  0  0  0  0  0  0  0  0  0
    7.4979   50.5904  131.5625 C   0  0  0  0  0  0  0  0  0  0  0  0
   12.7115   43.4574  135.3646 N   0  0  0  0  0  0  0  0  0  0  0  0
   14.1036   43.8408  135.1964 C   0  0  0  0  0  0  0  0  0  0  0  0
   15.0451   43.3162  136.2098 C   0  0  0  0  0  0  0  0  0  0  0  0
   14.4122   42.4933  137.2794 C   0  0  0  0  0  0  0  0  0  0  0  0
   13.1113   43.0906  137.6751 C   0  0  0  0  0  0  0  0  0  0  0  0
   12.1394   42.8400  136.5144 C   0  0  0  0  0  0  0  0  0  0  0  0
   15.3323   42.2662  138.3819 N   0  0  0  0  0  0  0  0  0  0  0  0
   16.4800   43.0930  138.1756 C   0  0  0  0  0  0  0  0  0  0  0  0
   17.7835   42.4504  138.5732 C   0  0  0  0  0  0  0  0  0  0  0  0
   17.5067   41.7326  139.7564 O   0  0  0  0  0  0  0  0  0  0  0  0
   16.8380   40.5852  139.3729 C   0  0  0  0  0  0  0  0  0  0  0  0
   15.6213   40.8624  138.5138 C   0  0  0  0  0  0  0  0  0  0  0  0
  7 13  1  0  0  0
 13 14  1  0  0  0
 13 15  1  0  0  0
 13 16  1  0  0  0
  7  8  2  0  0  0
  8  9  1  0  0  0
  9 10  2  0  0  0
 10  1  1  0  0  0
  1  2  2  0  0  0
  2  3  1  0  0  0
  3 17  1  0  0  0
 17 18  1  0  0  0
 18 19  1  0  0  0
 19 20  1  0  0  0
 20 23  1  0  0  0
 23 24  1  0  0  0
 24 25  1  0  0  0
 25 26  1  0  0  0
 26 27  1  0  0  0
 26 28  1  0  0  0
 28 29  1  0  0  0
 20 21  1  0  0  0
 21 22  1  0  0  0
  3  4  2  0  0  0
  4  5  1  0  0  0
  5 30  1  0  0  0
 30 31  1  0  0  0
 31 32  1  0  0  0
 32 33  1  0  0  0
 33 36  1  0  0  0
 36 37  1  0  0  0
 37 38  1  0  0  0
 38 39  1  0  0  0
 39 40  1  0  0  0
 40 41  1  0  0  0
 33 34  1  0  0  0
 34 35  1  0  0  0
  5  6  2  0  0  0
 10 11  1  0  0  0
 11 12  2  0  0  0
 12  7  1  0  0  0
  6  1  1  0  0  0
 22 17  1  0  0  0
 35 30  1  0  0  0
 29 23  1  0  0  0
 41 36  1  0  0  0
M  END
> <minimizedAffinity>
44.51884

> <CNNscore>
0.2423041761

> <CNNaffinity>
7.3447241783

> <CNN_VS>
1.7796573639

> <CNNaffinity_variance>
0.8903005719

$$$$
[H]c1c([H])c(C(F)(F)F)c([H])c([H])c1-c1nc(N2C([H])([H])C([H])([H])C([H])(N3C([H])([H])C([H])([H])OC([H])([H])C3([H])[H])C([H])([H])C2([H])[H])nc(N2C([H])([H])C([H])([H])C([H])(N3C([H])([H])C([H])([H])N(C([H])([H])[H])C([H])([H])C3([H])[H])C([H])([H])C2([H])[H])n1


 41 46  0  0  0  0  0  0  0  0999 V2000
    8.5726   46.3715  130.1125 C   0  0  0  0  0  0  0  0  0  0  0  0
    8.8655   45.2643  129.3728 N   0  0  0  0  0  0  0  0  0  0  0  0
    9.8540   44.4540  129.7397 C   0  0  0  0  0  0  0  0  0  0  0  0
   10.5592   44.7177  130.8355 N   0  0  0  0  0  0  0  0  0  0  0  0
   10.3146   45.8031  131.6163 C   0  0  0  0  0  0  0  0  0  0  0  0
    9.3169   46.5958  131.2128 N   0  0  0  0  0  0  0  0  0  0  0  0
    5.3093   48.9541  129.3726 C   0  0  0  0  0  0  0  0  0  0  0  0
    6.5716   49.4885  129.4473 C   0  0  0  0  0  0  0  0  0  0  0  0
    7.6300   48.6223  129.6686 C   0  0  0  0  0  0  0  0  0  0  0  0
    7.4820   47.2713  129.8123 C   0  0  0  0  0  0  0  0  0  0  0  0
    6.1675   46.7782  129.7243 C   0  0  0  0  0  0  0  0  0  0  0  0
    5.0935   47.6006  129.5084 C   0  0  0  0  0  0  0  0  0  0  0  0
    4.1262   49.8182  129.1313 C   0  0  0  0  0  0  0  0  0  0  0  0
    4.0530   50.3094  127.8693 F   0  0  0  0  0  0  0  0  0  0  0  0
    4.1478   50.8409  130.1019 F   0  0  0  0  0  0  0  0  0  0  0  0
    3.0187   49.0467  129.4791 F   0  0  0  0  0  0  0  0  0  0  0  0
   10.2117   43.3333  128.9074 N   0  0  0  0  0  0  0  0  0  0  0  0
   10.2911   43.4558  127.4922 C   0  0  0  0  0  0  0  0  0  0  0  0
    9.7058   42.2531  126.8065 C   0  0  0  0  0  0  0  0  0  0  0  0
   10.3442   41.0209  127.4097 C   0  0  0  0  0  0  0  0  0  0  0  0
    9.8146   40.9646  128.8553 C   0  0  0  0  0  0  0  0  0  0  0  0
   10.5208   42.0787  129.5695 C   0  0  0  0  0  0  0  0  0  0  0  0
   10.1614   39.8137  126.7173 N   0  0  0  0  0  0  0  0  0  0  0  0
    9.0127   39.7147  125.8945 C   0  0  0  0  0  0  0  0  0  0  0  0
    9.2588   39.5815  124.4401 C   0  0  0  0  0  0  0  0  0  0  0  0
   10.4524   38.8817  124.0882 N   0  0  0  0  0  0  0  0  0  0  0  0
   10.2736   37.4436  124.0270 C   0  0  0  0  0  0  0  0  0  0  0  0
   11.6271   39.2562  124.8217 C   0  0  0  0  0  0  0  0  0  0  0  0
   11.3420   39.1480  126.2868 C   0  0  0  0  0  0  0  0  0  0  0  0
   11.1161   46.0436  132.7778 N   0  0  0  0  0  0  0  0  0  0  0  0
   10.5229   46.9445  133.7523 C   0  0  0  0  0  0  0  0  0  0  0  0
   11.4308   47.4417  134.8091 C   0  0  0  0  0  0  0  0  0  0  0  0
   12.8221   46.9118  134.7335 C   0  0  0  0  0  0  0  0  0  0  0  0
   12.7973   45.4761  134.3541 C   0  0  0  0  0  0  0  0  0  0  0  0
   12.3925   45.4174  132.8752 C   0  0  0  0  0  0  0  0  0  0  0  0
   13.5621   47.2017  135.9508 N   0  0  0  0  0  0  0  0  0  0  0  0
   13.1957   48.5125  136.3879 C   0  0  0  0  0  0  0  0  0  0  0  0
   14.3333   49.3094  136.9716 C   0  0  0  0  0  0  0  0  0  0  0  0
   15.0930   48.3891  137.7252 O   0  0  0  0  0  0  0  0  0  0  0  0
   15.8259   47.6479  136.8174 C   0  0  0  0  0  0  0  0  0  0  0  0
   14.9731   47.0142  135.7374 C   0  0  0  0  0  0  0  0  0  0  0  0
  7 13  1  0  0  0
 13 14  1  0  0  0
 13 15  1  0  0  0
 13 16  1  0  0  0
  7  8  2  0  0  0
  8  9  1  0  0  0
  9 10  2  0  0  0
 10  1  1  0  0  0
  1  2  2  0  0  0
  2  3  1  0  0  0
  3 17  1  0  0  0
 17 18  1  0  0  0
 18 19  1  0  0  0
 19 20  1  0  0  0
 20 23  1  0  0  0
 23 24  1  0  0  0
 24 25  1  0  0  0
 25 26  1  0  0  0
 26 27  1  0  0  0
 26 28  1  0  0  0
 28 29  1  0  0  0
 20 21  1  0  0  0
 21 22  1  0  0  0
  3  4  2  0  0  0
  4  5  1  0  0  0
  5 30  1  0  0  0
 30 31  1  0  0  0
 31 32  1  0  0  0
 32 33  1  0  0  0
 33 36  1  0  0  0
 36 37  1  0  0  0
 37 38  1  0  0  0
 38 39  1  0  0  0
 39 40  1  0  0  0
 40 41  1  0  0  0
 33 34  1  0  0  0
 34 35  1  0  0  0
  5  6  2  0  0  0
 10 11  1  0  0  0
 11 12  2  0  0  0
 12  7  1  0  0  0
  6  1  1  0  0  0
 22 17  1  0  0  0
 35 30  1  0  0  0
 29 23  1  0  0  0
 41 36  1  0  0  0
M  END
> <minimizedAffinity>
41.29069

> <CNNscore>
0.1932066083

> <CNNaffinity>
7.2986059189

> <CNN_VS>
1.4101388454

> <CNNaffinity_variance>
1.2998507023

$$$$
[H]c1c([H])c(C(F)(F)F)c([H])c([H])c1-c1nc(N2C([H])([H])C([H])([H])C([H])(N3C([H])([H])C([H])([H])OC([H])([H])C3([H])[H])C([H])([H])C2([H])[H])nc(N2C([H])([H])C([H])([H])C([H])(N3C([H])([H])C([H])([H])N(C([H])([H])[H])C([H])([H])C3([H])[H])C([H])([H])C2([H])[H])n1


 41 46  0  0  0  0  0  0  0  0999 V2000
    9.0817   46.2907  131.8953 C   0  0  0  0  0  0  0  0  0  0  0  0
    8.3784   47.3750  131.4609 N   0  0  0  0  0  0  0  0  0  0  0  0
    8.1691   47.5626  130.1612 C   0  0  0  0  0  0  0  0  0  0  0  0
    8.6411   46.6884  129.2776 N   0  0  0  0  0  0  0  0  0  0  0  0
    9.3465   45.5869  129.6473 C   0  0  0  0  0  0  0  0  0  0  0  0
    9.5402   45.4352  130.9611 N   0  0  0  0  0  0  0  0  0  0  0  0
    9.8996   45.4054  135.9467 C   0  0  0  0  0  0  0  0  0  0  0  0
    9.1472   46.5149  135.6513 C   0  0  0  0  0  0  0  0  0  0  0  0
    8.8718   46.7753  134.3186 C   0  0  0  0  0  0  0  0  0  0  0  0
    9.3061   45.9867  133.2904 C   0  0  0  0  0  0  0  0  0  0  0  0
   10.0705   44.8622  133.6509 C   0  0  0  0  0  0  0  0  0  0  0  0
   10.3667   44.5702  134.9561 C   0  0  0  0  0  0  0  0  0  0  0  0
   10.2303   45.0578  137.3518 C   0  0  0  0  0  0  0  0  0  0  0  0
   10.6317   46.1157  138.0994 F   0  0  0  0  0  0  0  0  0  0  0  0
   11.1976   44.0325  137.3147 F   0  0  0  0  0  0  0  0  0  0  0  0
    9.0946   44.4315  137.8624 F   0  0  0  0  0  0  0  0  0  0  0  0
    7.4984   48.7539  129.7054 N   0  0  0  0  0  0  0  0  0  0  0  0
    6.6236   48.7295  128.5836 C   0  0  0  0  0  0  0  0  0  0  0  0
    6.8166   49.9404  127.7145 C   0  0  0  0  0  0  0  0  0  0  0  0
    6.7357   51.1637  128.6013 C   0  0  0  0  0  0  0  0  0  0  0  0
    7.9918   51.0952  129.4907 C   0  0  0  0  0  0  0  0  0  0  0  0
    7.7229   49.9773  130.4541 C   0  0  0  0  0  0  0  0  0  0  0  0
    6.5949   52.4019  127.9555 N   0  0  0  0  0  0  0  0  0  0  0  0
    7.1565   53.5296  128.6029 C   0  0  0  0  0  0  0  0  0  0  0  0
    8.2765   54.1973  127.9004 C   0  0  0  0  0  0  0  0  0  0  0  0
    8.2134   54.1495  126.4749 N   0  0  0  0  0  0  0  0  0  0  0  0
    7.4250   55.2240  125.9024 C   0  0  0  0  0  0  0  0  0  0  0  0
    7.8848   52.8708  125.9137 C   0  0  0  0  0  0  0  0  0  0  0  0
    6.6150   52.3781  126.5337 C   0  0  0  0  0  0  0  0  0  0  0  0
    9.8420   44.6873  128.6500 N   0  0  0  0  0  0  0  0  0  0  0  0
    9.1812   43.3929  128.6140 C   0  0  0  0  0  0  0  0  0  0  0  0
    9.8506   42.3481  127.8087 C   0  0  0  0  0  0  0  0  0  0  0  0
   11.0959   42.7948  127.1221 C   0  0  0  0  0  0  0  0  0  0  0  0
   10.9190   44.1734  126.5985 C   0  0  0  0  0  0  0  0  0  0  0  0
   10.9157   45.1100  127.8140 C   0  0  0  0  0  0  0  0  0  0  0  0
   11.5271   41.8233  126.1302 N   0  0  0  0  0  0  0  0  0  0  0  0
   11.0378   40.5404  126.5281 C   0  0  0  0  0  0  0  0  0  0  0  0
   11.9900   39.4048  126.2562 C   0  0  0  0  0  0  0  0  0  0  0  0
   12.5768   39.6936  125.0055 O   0  0  0  0  0  0  0  0  0  0  0  0
   13.5175   40.6809  125.2313 C   0  0  0  0  0  0  0  0  0  0  0  0
   12.9532   41.8903  125.9484 C   0  0  0  0  0  0  0  0  0  0  0  0
  7 13  1  0  0  0
 13 14  1  0  0  0
 13 15  1  0  0  0
 13 16  1  0  0  0
  7  8  2  0  0  0
  8  9  1  0  0  0
  9 10  2  0  0  0
 10  1  1  0  0  0
  1  2  2  0  0  0
  2  3  1  0  0  0
  3 17  1  0  0  0
 17 18  1  0  0  0
 18 19  1  0  0  0
 19 20  1  0  0  0
 20 23  1  0  0  0
 23 24  1  0  0  0
 24 25  1  0  0  0
 25 26  1  0  0  0
 26 27  1  0  0  0
 26 28  1  0  0  0
 28 29  1  0  0  0
 20 21  1  0  0  0
 21 22  1  0  0  0
  3  4  2  0  0  0
  4  5  1  0  0  0
  5 30  1  0  0  0
 30 31  1  0  0  0
 31 32  1  0  0  0
 32 33  1  0  0  0
 33 36  1  0  0  0
 36 37  1  0  0  0
 37 38  1  0  0  0
 38 39  1  0  0  0
 39 40  1  0  0  0
 40 41  1  0  0  0
 33 34  1  0  0  0
 34 35  1  0  0  0
  5  6  2  0  0  0
 10 11  1  0  0  0
 11 12  2  0  0  0
 12  7  1  0  0  0
  6  1  1  0  0  0
 22 17  1  0  0  0
 35 30  1  0  0  0
 29 23  1  0  0  0
 41 36  1  0  0  0
M  END
> <minimizedAffinity>
42.47001

> <CNNscore>
0.1487780064

> <CNNaffinity>
7.1594986916

> <CNN_VS>
1.0651758909

> <CNNaffinity_variance>
0.7045147419

$$$$
[H]c1c([H])c(N([H])c2nn(C([H])([H])C3([H])C([H])([H])C3([H])[H])c3c2C([H])([H])N(C(=O)C([H])([H])[H])C([H])([H])C3([H])[H])c([H])c(S(=O)(=O)C([H])([H])[H])c1[H]


 28 31  0  0  0  0  0  0  0  0999 V2000
   10.0102   49.9445  130.2714 C   0  0  0  0  0  0  0  0  0  0  0  0
   10.9449   48.9577  130.9038 C   0  0  0  0  0  0  0  0  0  0  0  0
   12.0972   49.4070  131.2343 O   0  0  0  0  0  0  0  0  0  0  0  0
   10.5719   47.6090  131.1214 N   0  0  0  0  0  0  0  0  0  0  0  0
   11.5331   46.7437  131.7329 C   0  0  0  0  0  0  0  0  0  0  0  0
   10.9345   45.4509  132.2283 C   0  0  0  0  0  0  0  0  0  0  0  0
    9.9816   44.8607  131.2258 C   0  0  0  0  0  0  0  0  0  0  0  0
    9.1904   45.7322  130.5056 C   0  0  0  0  0  0  0  0  0  0  0  0
    9.2523   47.2032  130.7122 C   0  0  0  0  0  0  0  0  0  0  0  0
    8.4305   44.9408  129.6533 C   0  0  0  0  0  0  0  0  0  0  0  0
    8.8025   43.6728  129.9076 N   0  0  0  0  0  0  0  0  0  0  0  0
    9.7301   43.5974  130.8458 N   0  0  0  0  0  0  0  0  0  0  0  0
    7.4706   45.4604  128.7466 N   0  0  0  0  0  0  0  0  0  0  0  0
    7.4939   45.0500  127.7672 H   0  0  0  0  0  0  0  0  0  0  0  0
    6.5081   46.4507  129.0334 C   0  0  0  0  0  0  0  0  0  0  0  0
    5.1649   46.2278  129.1228 C   0  0  0  0  0  0  0  0  0  0  0  0
    4.2780   47.2822  129.4355 C   0  0  0  0  0  0  0  0  0  0  0  0
    4.7282   48.5619  129.6594 C   0  0  0  0  0  0  0  0  0  0  0  0
    6.0919   48.7662  129.5634 C   0  0  0  0  0  0  0  0  0  0  0  0
    6.9700   47.7500  129.2599 C   0  0  0  0  0  0  0  0  0  0  0  0
    6.6965   50.3955  129.8451 S   0  0  0  0  0  0  0  0  0  0  0  0
    5.3896   51.4243  130.4736 C   0  0  0  0  0  0  0  0  0  0  0  0
    7.8557   50.3598  130.7970 O   0  0  0  0  0  0  0  0  0  0  0  0
    7.1986   50.9311  128.5277 O   0  0  0  0  0  0  0  0  0  0  0  0
   10.3494   42.4158  131.3846 C   0  0  0  0  0  0  0  0  0  0  0  0
    9.9187   41.9989  132.7384 C   0  0  0  0  0  0  0  0  0  0  0  0
    8.9167   42.7305  133.5732 C   0  0  0  0  0  0  0  0  0  0  0  0
   10.3552   42.9508  133.8573 C   0  0  0  0  0  0  0  0  0  0  0  0
  1  2  1  0  0  0
  2  3  2  0  0  0
  2  4  1  0  0  0
  4  5  1  0  0  0
  5  6  1  0  0  0
  6  7  1  0  0  0
  7  8  2  0  0  0
  8  9  1  0  0  0
  8 10  1  0  0  0
 10 13  1  0  0  0
 13 15  1  0  0  0
 15 16  2  0  0  0
 16 17  1  0  0  0
 17 18  2  0  0  0
 18 19  1  0  0  0
 19 20  2  0  0  0
 19 21  1  0  0  0
 21 22  1  0  0  0
 21 23  2  0  0  0
 21 24  2  0  0  0
 10 11  2  0  0  0
 11 12  1  0  0  0
 12 25  1  0  0  0
 25 26  1  0  0  0
 26 27  1  0  0  0
 27 28  1  0  0  0
  9  4  1  0  0  0
 20 15  1  0  0  0
 28 26  1  0  0  0
 12  7  1  0  0  0
 13 14  1  0  0  0
M  END
> <minimizedAffinity>
7.72022

> <CNNscore>
0.4708843827

> <CNNaffinity>
7.2558641434

> <CNN_VS>
3.4166731834

> <CNNaffinity_variance>
0.8495786786

$$$$
[H]c1c([H])c(N([H])c2nn(C([H])([H])C3([H])C([H])([H])C3([H])[H])c3c2C([H])([H])N(C(=O)C([H])([H])[H])C([H])([H])C3([H])[H])c([H])c(S(=O)(=O)C([H])([H])[H])c1[H]


 28 31  0  0  0  0  0  0  0  0999 V2000
    8.7665   45.6729  135.5924 C   0  0  0  0  0  0  0  0  0  0  0  0
    8.8391   46.9295  134.7782 C   0  0  0  0  0  0  0  0  0  0  0  0
    8.5107   48.0099  135.3815 O   0  0  0  0  0  0  0  0  0  0  0  0
    9.2475   46.9186  133.4224 N   0  0  0  0  0  0  0  0  0  0  0  0
    9.2860   48.1697  132.7294 C   0  0  0  0  0  0  0  0  0  0  0  0
   10.0479   48.1026  131.4294 C   0  0  0  0  0  0  0  0  0  0  0  0
    9.7021   46.8658  130.6469 C   0  0  0  0  0  0  0  0  0  0  0  0
    9.4821   45.7019  131.3548 C   0  0  0  0  0  0  0  0  0  0  0  0
    9.5953   45.6501  132.8363 C   0  0  0  0  0  0  0  0  0  0  0  0
    9.1681   44.7344  130.4085 C   0  0  0  0  0  0  0  0  0  0  0  0
    9.2176   45.3610  129.2187 N   0  0  0  0  0  0  0  0  0  0  0  0
    9.5357   46.6385  129.3338 N   0  0  0  0  0  0  0  0  0  0  0  0
    8.8844   43.3823  130.7323 N   0  0  0  0  0  0  0  0  0  0  0  0
    8.5751   42.7704  129.9210 H   0  0  0  0  0  0  0  0  0  0  0  0
    8.9812   42.7969  132.0119 C   0  0  0  0  0  0  0  0  0  0  0  0
   10.1478   42.6010  132.6919 C   0  0  0  0  0  0  0  0  0  0  0  0
   10.1430   42.0232  133.9812 C   0  0  0  0  0  0  0  0  0  0  0  0
    8.9745   41.6386  134.5956 C   0  0  0  0  0  0  0  0  0  0  0  0
    7.8044   41.8452  133.8895 C   0  0  0  0  0  0  0  0  0  0  0  0
    7.7913   42.4071  132.6326 C   0  0  0  0  0  0  0  0  0  0  0  0
    6.2930   41.3620  134.6520 S   0  0  0  0  0  0  0  0  0  0  0  0
    5.5023   42.7798  135.3775 C   0  0  0  0  0  0  0  0  0  0  0  0
    5.3945   40.7023  133.6476 O   0  0  0  0  0  0  0  0  0  0  0  0
    6.6220   40.3436  135.7146 O   0  0  0  0  0  0  0  0  0  0  0  0
    9.6971   47.6081  128.2832 C   0  0  0  0  0  0  0  0  0  0  0  0
   10.3924   47.1509  127.0586 C   0  0  0  0  0  0  0  0  0  0  0  0
   10.2901   45.7720  126.4893 C   0  0  0  0  0  0  0  0  0  0  0  0
   11.4807   46.1015  127.3091 C   0  0  0  0  0  0  0  0  0  0  0  0
  1  2  1  0  0  0
  2  3  2  0  0  0
  2  4  1  0  0  0
  4  5  1  0  0  0
  5  6  1  0  0  0
  6  7  1  0  0  0
  7  8  2  0  0  0
  8  9  1  0  0  0
  8 10  1  0  0  0
 10 13  1  0  0  0
 13 15  1  0  0  0
 15 16  2  0  0  0
 16 17  1  0  0  0
 17 18  2  0  0  0
 18 19  1  0  0  0
 19 20  2  0  0  0
 19 21  1  0  0  0
 21 22  1  0  0  0
 21 23  2  0  0  0
 21 24  2  0  0  0
 10 11  2  0  0  0
 11 12  1  0  0  0
 12 25  1  0  0  0
 25 26  1  0  0  0
 26 27  1  0  0  0
 27 28  1  0  0  0
  9  4  1  0  0  0
 20 15  1  0  0  0
 28 26  1  0  0  0
 12  7  1  0  0  0
 13 14  1  0  0  0
M  END
> <minimizedAffinity>
23.56551

> <CNNscore>
0.4343475699

> <CNNaffinity>
7.0288419724

> <CNN_VS>
3.0529603958

> <CNNaffinity_variance>
1.2387814522

$$$$
[H]c1c([H])c(N([H])c2nn(C([H])([H])C3([H])C([H])([H])C3([H])[H])c3c2C([H])([H])N(C(=O)C([H])([H])[H])C([H])([H])C3([H])[H])c([H])c(S(=O)(=O)C([H])([H])[H])c1[H]


 28 31  0  0  0  0  0  0  0  0999 V2000
   10.2564   42.3626  128.9068 C   0  0  0  0  0  0  0  0  0  0  0  0
    9.3568   43.3111  128.1730 C   0  0  0  0  0  0  0  0  0  0  0  0
    8.8743   42.8856  127.0662 O   0  0  0  0  0  0  0  0  0  0  0  0
    9.0602   44.6006  128.6774 N   0  0  0  0  0  0  0  0  0  0  0  0
    8.1898   45.4327  127.9049 C   0  0  0  0  0  0  0  0  0  0  0  0
    7.6693   46.6205  128.6753 C   0  0  0  0  0  0  0  0  0  0  0  0
    8.7558   47.2796  129.4793 C   0  0  0  0  0  0  0  0  0  0  0  0
    9.7021   46.4639  130.0653 C   0  0  0  0  0  0  0  0  0  0  0  0
    9.6549   44.9840  129.9315 C   0  0  0  0  0  0  0  0  0  0  0  0
   10.5839   47.3140  130.7211 C   0  0  0  0  0  0  0  0  0  0  0  0
   10.1245   48.5583  130.4944 N   0  0  0  0  0  0  0  0  0  0  0  0
    9.0304   48.5654  129.7535 N   0  0  0  0  0  0  0  0  0  0  0  0
   11.7034   46.8612  131.4662 N   0  0  0  0  0  0  0  0  0  0  0  0
   12.6289   47.3282  131.2350 H   0  0  0  0  0  0  0  0  0  0  0  0
   11.6876   45.8685  132.4680 C   0  0  0  0  0  0  0  0  0  0  0  0
   12.3498   45.9531  133.6581 C   0  0  0  0  0  0  0  0  0  0  0  0
   12.2577   44.9134  134.6104 C   0  0  0  0  0  0  0  0  0  0  0  0
   11.5053   43.7863  134.3781 C   0  0  0  0  0  0  0  0  0  0  0  0
   10.8432   43.7203  133.1666 C   0  0  0  0  0  0  0  0  0  0  0  0
   10.9220   44.7243  132.2278 C   0  0  0  0  0  0  0  0  0  0  0  0
    9.8723   42.2880  132.8422 S   0  0  0  0  0  0  0  0  0  0  0  0
    8.4411   42.7325  131.8853 C   0  0  0  0  0  0  0  0  0  0  0  0
   10.6950   41.2559  132.1287 O   0  0  0  0  0  0  0  0  0  0  0  0
    9.4559   41.7073  134.1704 O   0  0  0  0  0  0  0  0  0  0  0  0
    8.2577   49.7018  129.3275 C   0  0  0  0  0  0  0  0  0  0  0  0
    7.7112   50.5709  130.3943 C   0  0  0  0  0  0  0  0  0  0  0  0
    8.4653   50.9929  131.6147 C   0  0  0  0  0  0  0  0  0  0  0  0
    7.5120   49.8642  131.7395 C   0  0  0  0  0  0  0  0  0  0  0  0
  1  2  1  0  0  0
  2  3  2  0  0  0
  2  4  1  0  0  0
  4  5  1  0  0  0
  5  6  1  0  0  0
  6  7  1  0  0  0
  7  8  2  0  0  0
  8  9  1  0  0  0
  8 10  1  0  0  0
 10 13  1  0  0  0
 13 15  1  0  0  0
 15 16  2  0  0  0
 16 17  1  0  0  0
 17 18  2  0  0  0
 18 19  1  0  0  0
 19 20  2  0  0  0
 19 21  1  0  0  0
 21 22  1  0  0  0
 21 23  2  0  0  0
 21 24  2  0  0  0
 10 11  2  0  0  0
 11 12  1  0  0  0
 12 25  1  0  0  0
 25 26  1  0  0  0
 26 27  1  0  0  0
 27 28  1  0  0  0
  9  4  1  0  0  0
 20 15  1  0  0  0
 28 26  1  0  0  0
 12  7  1  0  0  0
 13 14  1  0  0  0
M  END
> <minimizedAffinity>
4.00405

> <CNNscore>
0.4206147790

> <CNNaffinity>
7.5107231140

> <CNN_VS>
3.1591210365

> <CNNaffinity_variance>
1.0176994801

$$$$
[H]c1c([H])c(N([H])c2nn(C([H])([H])C3([H])C([H])([H])C3([H])[H])c3c2C([H])([H])N(C(=O)C([H])([H])[H])C([H])([H])C3([H])[H])c([H])c(S(=O)(=O)C([H])([H])[H])c1[H]


 28 31  0  0  0  0  0  0  0  0999 V2000
    9.2154   47.0731  136.7669 C   0  0  0  0  0  0  0  0  0  0  0  0
    8.4286   48.0872  135.9924 C   0  0  0  0  0  0  0  0  0  0  0  0
    7.3739   48.5355  136.5630 O   0  0  0  0  0  0  0  0  0  0  0  0
    8.8312   48.5215  134.7061 N   0  0  0  0  0  0  0  0  0  0  0  0
    8.0147   49.4939  134.0468 C   0  0  0  0  0  0  0  0  0  0  0  0
    8.6966   50.1346  132.8638 C   0  0  0  0  0  0  0  0  0  0  0  0
    9.4145   49.1180  132.0197 C   0  0  0  0  0  0  0  0  0  0  0  0
   10.0420   48.0751  132.6701 C   0  0  0  0  0  0  0  0  0  0  0  0
   10.0332   47.9545  134.1519 C   0  0  0  0  0  0  0  0  0  0  0  0
   10.6016   47.2861  131.6729 C   0  0  0  0  0  0  0  0  0  0  0  0
   10.2840   47.8886  130.5124 N   0  0  0  0  0  0  0  0  0  0  0  0
    9.5735   48.9882  130.6924 N   0  0  0  0  0  0  0  0  0  0  0  0
   11.3528   46.1102  131.9309 N   0  0  0  0  0  0  0  0  0  0  0  0
   11.7907   46.0470  132.8966 H   0  0  0  0  0  0  0  0  0  0  0  0
   11.5574   45.0419  131.0331 C   0  0  0  0  0  0  0  0  0  0  0  0
   10.6041   44.1343  130.6731 C   0  0  0  0  0  0  0  0  0  0  0  0
   10.8984   43.1074  129.7485 C   0  0  0  0  0  0  0  0  0  0  0  0
   12.1444   42.9825  129.1806 C   0  0  0  0  0  0  0  0  0  0  0  0
   13.0953   43.9115  129.5591 C   0  0  0  0  0  0  0  0  0  0  0  0
   12.8253   44.9184  130.4585 C   0  0  0  0  0  0  0  0  0  0  0  0
   14.7000   43.7755  128.8477 S   0  0  0  0  0  0  0  0  0  0  0  0
   15.6275   45.2596  129.1617 C   0  0  0  0  0  0  0  0  0  0  0  0
   15.4095   42.5732  129.3975 O   0  0  0  0  0  0  0  0  0  0  0  0
   14.5264   43.5692  127.3638 O   0  0  0  0  0  0  0  0  0  0  0  0
    9.0743   49.8929  129.6912 C   0  0  0  0  0  0  0  0  0  0  0  0
    7.6549   49.7340  129.3010 C   0  0  0  0  0  0  0  0  0  0  0  0
    6.7807   50.8429  128.8091 C   0  0  0  0  0  0  0  0  0  0  0  0
    6.6647   50.4422  130.2318 C   0  0  0  0  0  0  0  0  0  0  0  0
  1  2  1  0  0  0
  2  3  2  0  0  0
  2  4  1  0  0  0
  4  5  1  0  0  0
  5  6  1  0  0  0
  6  7  1  0  0  0
  7  8  2  0  0  0
  8  9  1  0  0  0
  8 10  1  0  0  0
 10 13  1  0  0  0
 13 15  1  0  0  0
 15 16  2  0  0  0
 16 17  1  0  0  0
 17 18  2  0  0  0
 18 19  1  0  0  0
 19 20  2  0  0  0
 19 21  1  0  0  0
 21 22  1  0  0  0
 21 23  2  0  0  0
 21 24  2  0  0  0
 10 11  2  0  0  0
 11 12  1  0  0  0
 12 25  1  0  0  0
 25 26  1  0  0  0
 26 27  1  0  0  0
 27 28  1  0  0  0
  9  4  1  0  0  0
 20 15  1  0  0  0
 28 26  1  0  0  0
 12  7  1  0  0  0
 13 14  1  0  0  0
M  END
> <minimizedAffinity>
21.87443

> <CNNscore>
0.4075679183

> <CNNaffinity>
6.8706665039

> <CNN_VS>
2.8002631664

> <CNNaffinity_variance>
1.8844978809

$$$$
[H]c1c([H])c(N([H])c2nn(C([H])([H])C3([H])C([H])([H])C3([H])[H])c3c2C([H])([H])N(C(=O)C([H])([H])[H])C([H])([H])C3([H])[H])c([H])c(S(=O)(=O)C([H])([H])[H])c1[H]


 28 31  0  0  0  0  0  0  0  0999 V2000
   11.2387   49.3898  131.9367 C   0  0  0  0  0  0  0  0  0  0  0  0
    9.8084   49.8302  132.0234 C   0  0  0  0  0  0  0  0  0  0  0  0
    9.5452   50.7134  132.9120 O   0  0  0  0  0  0  0  0  0  0  0  0
    8.8101   49.2989  131.1711 N   0  0  0  0  0  0  0  0  0  0  0  0
    7.4735   49.7837  131.3297 C   0  0  0  0  0  0  0  0  0  0  0  0
    6.5731   49.4246  130.1740 C   0  0  0  0  0  0  0  0  0  0  0  0
    6.7660   47.9969  129.7433 C   0  0  0  0  0  0  0  0  0  0  0  0
    8.0475   47.4862  129.7772 C   0  0  0  0  0  0  0  0  0  0  0  0
    9.2098   48.3086  130.2052 C   0  0  0  0  0  0  0  0  0  0  0  0
    7.9429   46.1668  129.3551 C   0  0  0  0  0  0  0  0  0  0  0  0
    6.6365   45.9701  129.0993 N   0  0  0  0  0  0  0  0  0  0  0  0
    5.9099   47.0509  129.3235 N   0  0  0  0  0  0  0  0  0  0  0  0
    9.0523   45.2902  129.2357 N   0  0  0  0  0  0  0  0  0  0  0  0
    9.5583   45.3134  128.3022 H   0  0  0  0  0  0  0  0  0  0  0  0
    9.5297   44.4144  130.2330 C   0  0  0  0  0  0  0  0  0  0  0  0
    9.5999   43.0573  130.1084 C   0  0  0  0  0  0  0  0  0  0  0  0
   10.1129   42.2623  131.1576 C   0  0  0  0  0  0  0  0  0  0  0  0
   10.5569   42.8184  132.3342 C   0  0  0  0  0  0  0  0  0  0  0  0
   10.4764   44.1942  132.4400 C   0  0  0  0  0  0  0  0  0  0  0  0
    9.9795   44.9837  131.4273 C   0  0  0  0  0  0  0  0  0  0  0  0
   11.0378   44.9335  133.9359 S   0  0  0  0  0  0  0  0  0  0  0  0
    9.8461   46.1238  134.5055 C   0  0  0  0  0  0  0  0  0  0  0  0
   11.2809   43.8786  134.9748 O   0  0  0  0  0  0  0  0  0  0  0  0
   12.3556   45.6074  133.6466 O   0  0  0  0  0  0  0  0  0  0  0  0
    4.4919   47.2165  129.1449 C   0  0  0  0  0  0  0  0  0  0  0  0
    3.6297   46.1076  129.6128 C   0  0  0  0  0  0  0  0  0  0  0  0
    2.1381   46.0900  129.5080 C   0  0  0  0  0  0  0  0  0  0  0  0
    2.7416   46.4646  130.8095 C   0  0  0  0  0  0  0  0  0  0  0  0
  1  2  1  0  0  0
  2  3  2  0  0  0
  2  4  1  0  0  0
  4  5  1  0  0  0
  5  6  1  0  0  0
  6  7  1  0  0  0
  7  8  2  0  0  0
  8  9  1  0  0  0
  8 10  1  0  0  0
 10 13  1  0  0  0
 13 15  1  0  0  0
 15 16  2  0  0  0
 16 17  1  0  0  0
 17 18  2  0  0  0
 18 19  1  0  0  0
 19 20  2  0  0  0
 19 21  1  0  0  0
 21 22  1  0  0  0
 21 23  2  0  0  0
 21 24  2  0  0  0
 10 11  2  0  0  0
 11 12  1  0  0  0
 12 25  1  0  0  0
 25 26  1  0  0  0
 26 27  1  0  0  0
 27 28  1  0  0  0
  9  4  1  0  0  0
 20 15  1  0  0  0
 28 26  1  0  0  0
 12  7  1  0  0  0
 13 14  1  0  0  0
M  END
> <minimizedAffinity>
4.84547

> <CNNscore>
0.3992954493

> <CNNaffinity>
7.5356445312

> <CNN_VS>
3.0089485645

> <CNNaffinity_variance>
0.4178299904

$$$$
[H]c1c([H])c(N([H])c2nn(C([H])([H])C3([H])C([H])([H])C3([H])[H])c3c2C([H])([H])N(C(=O)C([H])([H])[H])C([H])([H])C3([H])[H])c([H])c(S(=O)(=O)C([H])([H])[H])c1[H]


 28 31  0  0  0  0  0  0  0  0999 V2000
    9.6175   43.1764  130.4886 C   0  0  0  0  0  0  0  0  0  0  0  0
    8.8439   43.9085  129.4337 C   0  0  0  0  0  0  0  0  0  0  0  0
    8.5465   43.2355  128.3861 O   0  0  0  0  0  0  0  0  0  0  0  0
    8.4658   45.2642  129.5902 N   0  0  0  0  0  0  0  0  0  0  0  0
    7.7276   45.8754  128.5281 C   0  0  0  0  0  0  0  0  0  0  0  0
    7.0863   47.1807  128.9283 C   0  0  0  0  0  0  0  0  0  0  0  0
    8.0276   48.0394  129.7269 C   0  0  0  0  0  0  0  0  0  0  0  0
    8.8705   47.4067  130.6177 C   0  0  0  0  0  0  0  0  0  0  0  0
    8.8505   45.9322  130.8064 C   0  0  0  0  0  0  0  0  0  0  0  0
    9.6329   48.4117  131.1999 C   0  0  0  0  0  0  0  0  0  0  0  0
    9.2115   49.5590  130.6369 N   0  0  0  0  0  0  0  0  0  0  0  0
    8.2502   49.3636  129.7515 N   0  0  0  0  0  0  0  0  0  0  0  0
   10.6200   48.1742  132.1912 N   0  0  0  0  0  0  0  0  0  0  0  0
   10.8779   49.0106  132.7929 H   0  0  0  0  0  0  0  0  0  0  0  0
   11.2684   46.9466  132.4401 C   0  0  0  0  0  0  0  0  0  0  0  0
   12.3918   46.5152  131.7968 C   0  0  0  0  0  0  0  0  0  0  0  0
   12.9825   45.2757  132.1296 C   0  0  0  0  0  0  0  0  0  0  0  0
   12.4542   44.4627  133.1045 C   0  0  0  0  0  0  0  0  0  0  0  0
   11.3161   44.9180  133.7432 C   0  0  0  0  0  0  0  0  0  0  0  0
   10.7279   46.1232  133.4314 C   0  0  0  0  0  0  0  0  0  0  0  0
   10.6177   43.8971  134.9960 S   0  0  0  0  0  0  0  0  0  0  0  0
    9.5952   42.6455  134.2547 C   0  0  0  0  0  0  0  0  0  0  0  0
   11.7046   43.2795  135.8257 O   0  0  0  0  0  0  0  0  0  0  0  0
    9.7942   44.7804  135.8994 O   0  0  0  0  0  0  0  0  0  0  0  0
    7.5519   50.3505  128.9714 C   0  0  0  0  0  0  0  0  0  0  0  0
    6.3409   50.9444  129.5821 C   0  0  0  0  0  0  0  0  0  0  0  0
    5.6500   50.4055  130.7938 C   0  0  0  0  0  0  0  0  0  0  0  0
    5.0859   50.0731  129.4635 C   0  0  0  0  0  0  0  0  0  0  0  0
  1  2  1  0  0  0
  2  3  2  0  0  0
  2  4  1  0  0  0
  4  5  1  0  0  0
  5  6  1  0  0  0
  6  7  1  0  0  0
  7  8  2  0  0  0
  8  9  1  0  0  0
  8 10  1  0  0  0
 10 13  1  0  0  0
 13 15  1  0  0  0
 15 16  2  0  0  0
 16 17  1  0  0  0
 17 18  2  0  0  0
 18 19  1  0  0  0
 19 20  2  0  0  0
 19 21  1  0  0  0
 21 22  1  0  0  0
 21 23  2  0  0  0
 21 24  2  0  0  0
 10 11  2  0  0  0
 11 12  1  0  0  0
 12 25  1  0  0  0
 25 26  1  0  0  0
 26 27  1  0  0  0
 27 28  1  0  0  0
  9  4  1  0  0  0
 20 15  1  0  0  0
 28 26  1  0  0  0
 12  7  1  0  0  0
 13 14  1  0  0  0
M  END
> <minimizedAffinity>
-0.05250

> <CNNscore>
0.3785021305

> <CNNaffinity>
7.4719877243

> <CNN_VS>
2.8281633854

> <CNNaffinity_variance>
0.5568871498

$$$$
[H]c1c([H])c(N([H])c2nn(C([H])([H])C3([H])C([H])([H])C3([H])[H])c3c2C([H])([H])N(C(=O)C([H])([H])[H])C([H])([H])C3([H])[H])c([H])c(S(=O)(=O)C([H])([H])[H])c1[H]


 28 31  0  0  0  0  0  0  0  0999 V2000
   11.4141   46.0023  127.6341 C   0  0  0  0  0  0  0  0  0  0  0  0
   11.8206   44.8930  128.5568 C   0  0  0  0  0  0  0  0  0  0  0  0
   12.8614   44.2305  128.2149 O   0  0  0  0  0  0  0  0  0  0  0  0
   11.0943   44.5982  129.7361 N   0  0  0  0  0  0  0  0  0  0  0  0
   11.5620   43.5210  130.5533 C   0  0  0  0  0  0  0  0  0  0  0  0
   10.9438   43.5107  131.9291 C   0  0  0  0  0  0  0  0  0  0  0  0
    9.4639   43.7720  131.8743 C   0  0  0  0  0  0  0  0  0  0  0  0
    9.0095   44.6832  130.9430 C   0  0  0  0  0  0  0  0  0  0  0  0
    9.9368   45.4025  130.0303 C   0  0  0  0  0  0  0  0  0  0  0  0
    7.6286   44.7215  131.0902 C   0  0  0  0  0  0  0  0  0  0  0  0
    7.3446   43.8521  132.0772 N   0  0  0  0  0  0  0  0  0  0  0  0
    8.4266   43.2702  132.5641 N   0  0  0  0  0  0  0  0  0  0  0  0
    6.7794   45.5556  130.3177 N   0  0  0  0  0  0  0  0  0  0  0  0
    5.9563   45.0703  129.8539 H   0  0  0  0  0  0  0  0  0  0  0  0
    6.9324   46.9442  130.1234 C   0  0  0  0  0  0  0  0  0  0  0  0
    6.0908   47.7242  129.3851 C   0  0  0  0  0  0  0  0  0  0  0  0
    6.3154   49.1139  129.2641 C   0  0  0  0  0  0  0  0  0  0  0  0
    7.3803   49.7293  129.8787 C   0  0  0  0  0  0  0  0  0  0  0  0
    8.2207   48.9212  130.6211 C   0  0  0  0  0  0  0  0  0  0  0  0
    8.0162   47.5657  130.7496 C   0  0  0  0  0  0  0  0  0  0  0  0
    9.5928   49.6826  131.4192 S   0  0  0  0  0  0  0  0  0  0  0  0
    9.9978   48.7926  132.9042 C   0  0  0  0  0  0  0  0  0  0  0  0
   10.7684   49.7359  130.4885 O   0  0  0  0  0  0  0  0  0  0  0  0
    9.2010   51.1014  131.7480 O   0  0  0  0  0  0  0  0  0  0  0  0
    8.5095   42.3063  133.6290 C   0  0  0  0  0  0  0  0  0  0  0  0
    7.2553   42.0144  134.3597 C   0  0  0  0  0  0  0  0  0  0  0  0
    6.8561   40.6604  134.8531 C   0  0  0  0  0  0  0  0  0  0  0  0
    6.2639   41.1422  133.5820 C   0  0  0  0  0  0  0  0  0  0  0  0
  1  2  1  0  0  0
  2  3  2  0  0  0
  2  4  1  0  0  0
  4  5  1  0  0  0
  5  6  1  0  0  0
  6  7  1  0  0  0
  7  8  2  0  0  0
  8  9  1  0  0  0
  8 10  1  0  0  0
 10 13  1  0  0  0
 13 15  1  0  0  0
 15 16  2  0  0  0
 16 17  1  0  0  0
 17 18  2  0  0  0
 18 19  1  0  0  0
 19 20  2  0  0  0
 19 21  1  0  0  0
 21 22  1  0  0  0
 21 23  2  0  0  0
 21 24  2  0  0  0
 10 11  2  0  0  0
 11 12  1  0  0  0
 12 25  1  0  0  0
 25 26  1  0  0  0
 26 27  1  0  0  0
 27 28  1  0  0  0
  9  4  1  0  0  0
 20 15  1  0  0  0
 28 26  1  0  0  0
 12  7  1  0  0  0
 13 14  1  0  0  0
M  END
> <minimizedAffinity>
5.69445

> <CNNscore>
0.3677952588

> <CNNaffinity>
7.2320470810

> <CNN_VS>
2.6599125862

> <CNNaffinity_variance>
0.5721348524

$$$$
[H]c1c([H])c(N([H])c2nn(C([H])([H])C3([H])C([H])([H])C3([H])[H])c3c2C([H])([H])N(C(=O)C([H])([H])[H])C([H])([H])C3([H])[H])c([H])c(S(=O)(=O)C([H])([H])[H])c1[H]


 28 31  0  0  0  0  0  0  0  0999 V2000
    8.2013   42.1775  131.4512 C   0  0  0  0  0  0  0  0  0  0  0  0
    8.5196   42.5000  132.8802 C   0  0  0  0  0  0  0  0  0  0  0  0
    7.5924   42.2616  133.7302 O   0  0  0  0  0  0  0  0  0  0  0  0
    9.7727   43.0365  133.2638 N   0  0  0  0  0  0  0  0  0  0  0  0
    9.9821   43.3099  134.6523 C   0  0  0  0  0  0  0  0  0  0  0  0
   11.4316   43.5444  134.9971 C   0  0  0  0  0  0  0  0  0  0  0  0
   12.1054   44.4320  133.9874 C   0  0  0  0  0  0  0  0  0  0  0  0
   11.7483   44.2801  132.6631 C   0  0  0  0  0  0  0  0  0  0  0  0
   10.7480   43.2690  132.2302 C   0  0  0  0  0  0  0  0  0  0  0  0
   12.4926   45.2177  131.9581 C   0  0  0  0  0  0  0  0  0  0  0  0
   13.2337   45.8599  132.8796 N   0  0  0  0  0  0  0  0  0  0  0  0
   13.0207   45.4080  134.1030 N   0  0  0  0  0  0  0  0  0  0  0  0
   12.4251   45.3757  130.5495 N   0  0  0  0  0  0  0  0  0  0  0  0
   13.3409   45.2444  130.0278 H   0  0  0  0  0  0  0  0  0  0  0  0
   11.2683   45.6812  129.8027 C   0  0  0  0  0  0  0  0  0  0  0  0
   10.1934   46.3726  130.2807 C   0  0  0  0  0  0  0  0  0  0  0  0
    9.0853   46.6485  129.4488 C   0  0  0  0  0  0  0  0  0  0  0  0
    9.0460   46.2352  128.1380 C   0  0  0  0  0  0  0  0  0  0  0  0
   10.1444   45.5362  127.6740 C   0  0  0  0  0  0  0  0  0  0  0  0
   11.2323   45.2590  128.4710 C   0  0  0  0  0  0  0  0  0  0  0  0
   10.1212   44.9945  125.9990 S   0  0  0  0  0  0  0  0  0  0  0  0
    9.7793   46.3693  124.9245 C   0  0  0  0  0  0  0  0  0  0  0  0
   11.4291   44.3499  125.6456 O   0  0  0  0  0  0  0  0  0  0  0  0
    9.0426   43.9481  125.8717 O   0  0  0  0  0  0  0  0  0  0  0  0
   13.6420   45.8405  135.3265 C   0  0  0  0  0  0  0  0  0  0  0  0
   14.4041   47.1087  135.2722 C   0  0  0  0  0  0  0  0  0  0  0  0
   15.1268   47.7149  136.4325 C   0  0  0  0  0  0  0  0  0  0  0  0
   13.7864   48.2481  136.0899 C   0  0  0  0  0  0  0  0  0  0  0  0
  1  2  1  0  0  0
  2  3  2  0  0  0
  2  4  1  0  0  0
  4  5  1  0  0  0
  5  6  1  0  0  0
  6  7  1  0  0  0
  7  8  2  0  0  0
  8  9  1  0  0  0
  8 10  1  0  0  0
 10 13  1  0  0  0
 13 15  1  0  0  0
 15 16  2  0  0  0
 16 17  1  0  0  0
 17 18  2  0  0  0
 18 19  1  0  0  0
 19 20  2  0  0  0
 19 21  1  0  0  0
 21 22  1  0  0  0
 21 23  2  0  0  0
 21 24  2  0  0  0
 10 11  2  0  0  0
 11 12  1  0  0  0
 12 25  1  0  0  0
 25 26  1  0  0  0
 26 27  1  0  0  0
 27 28  1  0  0  0
  9  4  1  0  0  0
 20 15  1  0  0  0
 28 26  1  0  0  0
 12  7  1  0  0  0
 13 14  1  0  0  0
M  END
> <minimizedAffinity>
24.43368

> <CNNscore>
0.3599852324

> <CNNaffinity>
6.6405563354

> <CNN_VS>
2.3905022144

> <CNNaffinity_variance>
1.4332872629

$$$$
[H]c1c([H])c(N([H])c2nn(C([H])([H])C3([H])C([H])([H])C3([H])[H])c3c2C([H])([H])N(C(=O)C([H])([H])[H])C([H])([H])C3([H])[H])c([H])c(S(=O)(=O)C([H])([H])[H])c1[H]


 28 31  0  0  0  0  0  0  0  0999 V2000
    9.8150   45.7605  135.6637 C   0  0  0  0  0  0  0  0  0  0  0  0
   10.5996   44.7286  134.9107 C   0  0  0  0  0  0  0  0  0  0  0  0
   11.7142   44.3778  135.4337 O   0  0  0  0  0  0  0  0  0  0  0  0
   10.1323   44.1764  133.6933 N   0  0  0  0  0  0  0  0  0  0  0  0
   10.9522   43.1965  133.0496 C   0  0  0  0  0  0  0  0  0  0  0  0
   10.2252   42.4333  131.9707 C   0  0  0  0  0  0  0  0  0  0  0  0
    9.3962   43.3450  131.1088 C   0  0  0  0  0  0  0  0  0  0  0  0
    8.7602   44.4036  131.7245 C   0  0  0  0  0  0  0  0  0  0  0  0
    8.8657   44.6395  133.1886 C   0  0  0  0  0  0  0  0  0  0  0  0
    8.0906   45.0845  130.7155 C   0  0  0  0  0  0  0  0  0  0  0  0
    8.3587   44.4096  129.5826 N   0  0  0  0  0  0  0  0  0  0  0  0
    9.1384   43.3632  129.7908 N   0  0  0  0  0  0  0  0  0  0  0  0
    7.2968   46.2390  130.9402 N   0  0  0  0  0  0  0  0  0  0  0  0
    6.2576   46.0637  131.0726 H   0  0  0  0  0  0  0  0  0  0  0  0
    7.7639   47.5682  131.0048 C   0  0  0  0  0  0  0  0  0  0  0  0
    8.8883   47.9668  131.6673 C   0  0  0  0  0  0  0  0  0  0  0  0
    9.2884   49.3217  131.6588 C   0  0  0  0  0  0  0  0  0  0  0  0
    8.5680   50.2831  130.9900 C   0  0  0  0  0  0  0  0  0  0  0  0
    7.4325   49.8585  130.3261 C   0  0  0  0  0  0  0  0  0  0  0  0
    7.0286   48.5422  130.3240 C   0  0  0  0  0  0  0  0  0  0  0  0
    6.4904   51.0684  129.4612 S   0  0  0  0  0  0  0  0  0  0  0  0
    4.8011   50.5315  129.3211 C   0  0  0  0  0  0  0  0  0  0  0  0
    6.5762   52.3909  130.1646 O   0  0  0  0  0  0  0  0  0  0  0  0
    7.1037   51.2336  128.0933 O   0  0  0  0  0  0  0  0  0  0  0  0
    9.6147   42.4086  128.8254 C   0  0  0  0  0  0  0  0  0  0  0  0
   10.7308   42.8444  127.9556 C   0  0  0  0  0  0  0  0  0  0  0  0
   11.6782   43.9541  128.2826 C   0  0  0  0  0  0  0  0  0  0  0  0
   10.5536   44.2459  127.3615 C   0  0  0  0  0  0  0  0  0  0  0  0
  1  2  1  0  0  0
  2  3  2  0  0  0
  2  4  1  0  0  0
  4  5  1  0  0  0
  5  6  1  0  0  0
  6  7  1  0  0  0
  7  8  2  0  0  0
  8  9  1  0  0  0
  8 10  1  0  0  0
 10 13  1  0  0  0
 13 15  1  0  0  0
 15 16  2  0  0  0
 16 17  1  0  0  0
 17 18  2  0  0  0
 18 19  1  0  0  0
 19 20  2  0  0  0
 19 21  1  0  0  0
 21 22  1  0  0  0
 21 23  2  0  0  0
 21 24  2  0  0  0
 10 11  2  0  0  0
 11 12  1  0  0  0
 12 25  1  0  0  0
 25 26  1  0  0  0
 26 27  1  0  0  0
 27 28  1  0  0  0
  9  4  1  0  0  0
 20 15  1  0  0  0
 28 26  1  0  0  0
 12  7  1  0  0  0
 13 14  1  0  0  0
M  END
> <minimizedAffinity>
0.04675

> <CNNscore>
0.3321343064

> <CNNaffinity>
7.4205856323

> <CNN_VS>
2.4646310806

> <CNNaffinity_variance>
0.5106055737

$$$$
[H]Oc1c([H])c([H])c([H])c([C@]([H])(c2c([H])c([H])c([H])c([H])c2[H])N([H])C(=O)[C@@]([H])(c2c([H])c([H])c([H])c([H])c2[H])N([H])C(=O)c2c([H])c([H])c([H])c(C([H])(O[H])C(=O)N([H])C([H])([H])C([H])([H])OC([H])([H])[H])c2[H])c1[H]


 47 50  0  0  0  0  0  0  0  0999 V2000
   11.7342   45.0246  130.2288 C   0  0  0  0  0  0  0  0  0  0  0  0
   11.2292   44.5687  128.9562 C   0  0  0  0  0  0  0  0  0  0  0  0
   10.4024   43.4642  128.9326 C   0  0  0  0  0  0  0  0  0  0  0  0
    9.9130   42.9908  127.7431 C   0  0  0  0  0  0  0  0  0  0  0  0
   10.2269   43.5959  126.5476 C   0  0  0  0  0  0  0  0  0  0  0  0
   11.0538   44.6981  126.5862 C   0  0  0  0  0  0  0  0  0  0  0  0
   11.5533   45.1855  127.7705 C   0  0  0  0  0  0  0  0  0  0  0  0
   10.0682   46.6759  131.0786 C   0  0  0  0  0  0  0  0  0  0  0  0
    9.1725   45.8584  131.3791 O   0  0  0  0  0  0  0  0  0  0  0  0
   11.3172   46.3542  130.5210 N   0  0  0  0  0  0  0  0  0  0  0  0
   11.9897   47.1543  130.3089 H   0  0  0  0  0  0  0  0  0  0  0  0
    8.6316   50.1425  130.7013 C   0  0  0  0  0  0  0  0  0  0  0  0
    9.2143   50.7623  131.8022 C   0  0  0  0  0  0  0  0  0  0  0  0
   10.0426   50.0610  132.6577 C   0  0  0  0  0  0  0  0  0  0  0  0
   10.2991   48.7399  132.4266 C   0  0  0  0  0  0  0  0  0  0  0  0
    9.7379   48.1111  131.3518 C   0  0  0  0  0  0  0  0  0  0  0  0
    8.9111   48.8138  130.5011 C   0  0  0  0  0  0  0  0  0  0  0  0
    7.7684   50.9645  129.7989 C   0  0  0  0  0  0  0  0  0  0  0  0
    6.9340   51.6788  130.7008 O   0  0  0  0  0  0  0  0  0  0  0  0
    6.9303   52.6547  130.4448 H   0  0  0  0  0  0  0  0  0  0  0  0
    5.7474   49.4608  129.5789 N   0  0  0  0  0  0  0  0  0  0  0  0
    6.8853   50.0732  128.9957 C   0  0  0  0  0  0  0  0  0  0  0  0
    7.2086   49.8979  127.7870 O   0  0  0  0  0  0  0  0  0  0  0  0
    5.5370   49.6465  130.5789 H   0  0  0  0  0  0  0  0  0  0  0  0
    4.8958   48.5954  128.8003 C   0  0  0  0  0  0  0  0  0  0  0  0
    5.0713   47.1432  129.1899 C   0  0  0  0  0  0  0  0  0  0  0  0
    7.2411   46.3020  129.0694 C   0  0  0  0  0  0  0  0  0  0  0  0
    6.2740   46.9180  129.8346 O   0  0  0  0  0  0  0  0  0  0  0  0
   11.4222   44.1863  131.4215 C   0  0  0  0  0  0  0  0  0  0  0  0
   12.2287   43.2151  131.5906 O   0  0  0  0  0  0  0  0  0  0  0  0
   10.3856   44.3643  132.3219 N   0  0  0  0  0  0  0  0  0  0  0  0
    9.7281   45.1630  132.2287 H   0  0  0  0  0  0  0  0  0  0  0  0
   10.1296   43.4705  133.4575 C   0  0  0  0  0  0  0  0  0  0  0  0
    8.9401   42.6715  133.2949 C   0  0  0  0  0  0  0  0  0  0  0  0
    8.3548   42.5721  132.0451 C   0  0  0  0  0  0  0  0  0  0  0  0
    7.2033   41.8382  131.8674 C   0  0  0  0  0  0  0  0  0  0  0  0
    6.5828   41.1774  132.9058 C   0  0  0  0  0  0  0  0  0  0  0  0
    7.1743   41.2832  134.1440 C   0  0  0  0  0  0  0  0  0  0  0  0
    6.5774   40.6298  135.2102 O   0  0  0  0  0  0  0  0  0  0  0  0
    8.3436   42.0232  134.3405 C   0  0  0  0  0  0  0  0  0  0  0  0
    5.8773   41.0473  135.7985 H   0  0  0  0  0  0  0  0  0  0  0  0
   10.0713   44.2916  134.7251 C   0  0  0  0  0  0  0  0  0  0  0  0
    9.4019   45.5078  134.6389 C   0  0  0  0  0  0  0  0  0  0  0  0
    9.2799   46.3351  135.7254 C   0  0  0  0  0  0  0  0  0  0  0  0
    9.8434   45.9223  136.9147 C   0  0  0  0  0  0  0  0  0  0  0  0
   10.5113   44.7181  137.0210 C   0  0  0  0  0  0  0  0  0  0  0  0
   10.6152   43.9134  135.9054 C   0  0  0  0  0  0  0  0  0  0  0  0
 27 28  1  0  0  0
 28 26  1  0  0  0
 26 25  1  0  0  0
 25 21  1  0  0  0
 21 22  1  0  0  0
 22 23  2  0  0  0
 22 18  1  0  0  0
 18 19  1  0  0  0
 18 12  1  0  0  0
 12 13  2  0  0  0
 13 14  1  0  0  0
 14 15  2  0  0  0
 15 16  1  0  0  0
 16 17  2  0  0  0
 16  8  1  0  0  0
  8  9  2  0  0  0
  8 10  1  0  0  0
 10  1  1  0  0  0
  1 29  1  0  0  0
 29 30  2  0  0  0
 29 31  1  0  0  0
 31 33  1  0  0  0
 33 42  1  0  0  0
 42 43  2  0  0  0
 43 44  1  0  0  0
 44 45  2  0  0  0
 45 46  1  0  0  0
 46 47  2  0  0  0
 33 34  1  0  0  0
 34 35  2  0  0  0
 35 36  1  0  0  0
 36 37  2  0  0  0
 37 38  1  0  0  0
 38 39  1  0  0  0
 38 40  2  0  0  0
  1  2  1  0  0  0
  2  3  2  0  0  0
  3  4  1  0  0  0
  4  5  2  0  0  0
  5  6  1  0  0  0
  6  7  2  0  0  0
 17 12  1  0  0  0
 47 42  1  0  0  0
 40 34  1  0  0  0
  7  2  1  0  0  0
 21 24  1  0  0  0
 19 20  1  0  0  0
 10 11  1  0  0  0
 31 32  1  0  0  0
 39 41  1  0  0  0
M  END
> <minimizedAffinity>
12.89351

> <CNNscore>
0.5267570019

> <CNNaffinity>
7.8156914711

> <CNN_VS>
4.1169700623

> <CNNaffinity_variance>
1.0469518900

$$$$
[H]Oc1c([H])c([H])c([H])c([C@]([H])(c2c([H])c([H])c([H])c([H])c2[H])N([H])C(=O)[C@@]([H])(c2c([H])c([H])c([H])c([H])c2[H])N([H])C(=O)c2c([H])c([H])c([H])c(C([H])(O[H])C(=O)N([H])C([H])([H])C([H])([H])OC([H])([H])[H])c2[H])c1[H]


 47 50  0  0  0  0  0  0  0  0999 V2000
   11.2308   46.7951  134.7085 C   0  0  0  0  0  0  0  0  0  0  0  0
   12.3901   47.4055  135.3132 C   0  0  0  0  0  0  0  0  0  0  0  0
   12.2219   48.5724  136.0304 C   0  0  0  0  0  0  0  0  0  0  0  0
   13.2995   49.1914  136.6085 C   0  0  0  0  0  0  0  0  0  0  0  0
   14.5695   48.6740  136.4935 C   0  0  0  0  0  0  0  0  0  0  0  0
   14.7227   47.5082  135.7743 C   0  0  0  0  0  0  0  0  0  0  0  0
   13.6526   46.8749  135.1882 C   0  0  0  0  0  0  0  0  0  0  0  0
   10.6633   48.0269  132.6145 C   0  0  0  0  0  0  0  0  0  0  0  0
   11.5398   47.5151  131.8860 O   0  0  0  0  0  0  0  0  0  0  0  0
   10.4562   47.7369  133.9736 N   0  0  0  0  0  0  0  0  0  0  0  0
    9.6709   48.2516  134.4794 H   0  0  0  0  0  0  0  0  0  0  0  0
    8.3057   49.6122  130.1340 C   0  0  0  0  0  0  0  0  0  0  0  0
    8.2466   50.9016  130.6530 C   0  0  0  0  0  0  0  0  0  0  0  0
    8.9457   51.2413  131.7957 C   0  0  0  0  0  0  0  0  0  0  0  0
    9.7088   50.3042  132.4312 C   0  0  0  0  0  0  0  0  0  0  0  0
    9.7816   49.0321  131.9392 C   0  0  0  0  0  0  0  0  0  0  0  0
    9.0819   48.6966  130.7997 C   0  0  0  0  0  0  0  0  0  0  0  0
    7.5487   49.3172  128.8790 C   0  0  0  0  0  0  0  0  0  0  0  0
    6.4028   50.1517  128.9808 O   0  0  0  0  0  0  0  0  0  0  0  0
    6.2792   50.6502  128.1125 H   0  0  0  0  0  0  0  0  0  0  0  0
    7.8884   46.8674  129.4052 N   0  0  0  0  0  0  0  0  0  0  0  0
    7.0684   47.9071  128.8990 C   0  0  0  0  0  0  0  0  0  0  0  0
    5.9087   47.6990  128.4429 O   0  0  0  0  0  0  0  0  0  0  0  0
    8.8327   47.1060  129.7659 H   0  0  0  0  0  0  0  0  0  0  0  0
    7.4227   45.5024  129.4203 C   0  0  0  0  0  0  0  0  0  0  0  0
    7.1975   45.0058  130.8325 C   0  0  0  0  0  0  0  0  0  0  0  0
    7.3999   45.7387  133.0352 C   0  0  0  0  0  0  0  0  0  0  0  0
    7.9260   45.7269  131.7611 O   0  0  0  0  0  0  0  0  0  0  0  0
   11.4683   45.6219  133.8199 C   0  0  0  0  0  0  0  0  0  0  0  0
   12.6856   45.2496  133.7767 O   0  0  0  0  0  0  0  0  0  0  0  0
   10.5269   44.9306  133.0764 N   0  0  0  0  0  0  0  0  0  0  0  0
    9.5219   45.1906  133.1121 H   0  0  0  0  0  0  0  0  0  0  0  0
   10.8513   43.7999  132.1987 C   0  0  0  0  0  0  0  0  0  0  0  0
   11.4417   44.2038  130.9464 C   0  0  0  0  0  0  0  0  0  0  0  0
   12.7963   44.0108  130.7412 C   0  0  0  0  0  0  0  0  0  0  0  0
   13.3907   44.4120  129.5657 C   0  0  0  0  0  0  0  0  0  0  0  0
   12.6817   45.0175  128.5505 C   0  0  0  0  0  0  0  0  0  0  0  0
   11.3352   45.2038  128.7658 C   0  0  0  0  0  0  0  0  0  0  0  0
   10.5919   45.8085  127.7649 O   0  0  0  0  0  0  0  0  0  0  0  0
   10.7169   44.8011  129.9529 C   0  0  0  0  0  0  0  0  0  0  0  0
   10.4521   46.8017  127.6971 H   0  0  0  0  0  0  0  0  0  0  0  0
    9.6035   42.9761  131.9778 C   0  0  0  0  0  0  0  0  0  0  0  0
    8.8164   42.7405  133.1001 C   0  0  0  0  0  0  0  0  0  0  0  0
    7.6583   42.0110  133.0206 C   0  0  0  0  0  0  0  0  0  0  0  0
    7.2937   41.5153  131.7862 C   0  0  0  0  0  0  0  0  0  0  0  0
    8.0611   41.7389  130.6598 C   0  0  0  0  0  0  0  0  0  0  0  0
    9.2209   42.4760  130.7796 C   0  0  0  0  0  0  0  0  0  0  0  0
 27 28  1  0  0  0
 28 26  1  0  0  0
 26 25  1  0  0  0
 25 21  1  0  0  0
 21 22  1  0  0  0
 22 23  2  0  0  0
 22 18  1  0  0  0
 18 19  1  0  0  0
 18 12  1  0  0  0
 12 13  2  0  0  0
 13 14  1  0  0  0
 14 15  2  0  0  0
 15 16  1  0  0  0
 16 17  2  0  0  0
 16  8  1  0  0  0
  8  9  2  0  0  0
  8 10  1  0  0  0
 10  1  1  0  0  0
  1 29  1  0  0  0
 29 30  2  0  0  0
 29 31  1  0  0  0
 31 33  1  0  0  0
 33 42  1  0  0  0
 42 43  2  0  0  0
 43 44  1  0  0  0
 44 45  2  0  0  0
 45 46  1  0  0  0
 46 47  2  0  0  0
 33 34  1  0  0  0
 34 35  2  0  0  0
 35 36  1  0  0  0
 36 37  2  0  0  0
 37 38  1  0  0  0
 38 39  1  0  0  0
 38 40  2  0  0  0
  1  2  1  0  0  0
  2  3  2  0  0  0
  3  4  1  0  0  0
  4  5  2  0  0  0
  5  6  1  0  0  0
  6  7  2  0  0  0
 17 12  1  0  0  0
 47 42  1  0  0  0
 40 34  1  0  0  0
  7  2  1  0  0  0
 21 24  1  0  0  0
 19 20  1  0  0  0
 10 11  1  0  0  0
 31 32  1  0  0  0
 39 41  1  0  0  0
M  END
> <minimizedAffinity>
9.12277

> <CNNscore>
0.5111243725

> <CNNaffinity>
7.5041780472

> <CNN_VS>
3.8355681896

> <CNNaffinity_variance>
0.6172654033

$$$$
[H]Oc1c([H])c([H])c([H])c([C@]([H])(c2c([H])c([H])c([H])c([H])c2[H])N([H])C(=O)[C@@]([H])(c2c([H])c([H])c([H])c([H])c2[H])N([H])C(=O)c2c([H])c([H])c([H])c(C([H])(O[H])C(=O)N([H])C([H])([H])C([H])([H])OC([H])([H])[H])c2[H])c1[H]


 47 50  0  0  0  0  0  0  0  0999 V2000
    8.1904   45.0177  132.9749 C   0  0  0  0  0  0  0  0  0  0  0  0
    8.7602   45.4782  134.2181 C   0  0  0  0  0  0  0  0  0  0  0  0
    8.4506   46.7504  134.6537 C   0  0  0  0  0  0  0  0  0  0  0  0
    8.9822   47.2309  135.8221 C   0  0  0  0  0  0  0  0  0  0  0  0
    9.8321   46.4677  136.5896 C   0  0  0  0  0  0  0  0  0  0  0  0
   10.1326   45.1990  136.1423 C   0  0  0  0  0  0  0  0  0  0  0  0
    9.6082   44.7020  134.9728 C   0  0  0  0  0  0  0  0  0  0  0  0
    7.3593   45.9771  130.8271 C   0  0  0  0  0  0  0  0  0  0  0  0
    7.4599   44.9391  130.1392 O   0  0  0  0  0  0  0  0  0  0  0  0
    7.6925   46.0940  132.1871 N   0  0  0  0  0  0  0  0  0  0  0  0
    7.5605   47.0442  132.6531 H   0  0  0  0  0  0  0  0  0  0  0  0
    7.1444   49.4319  129.3296 C   0  0  0  0  0  0  0  0  0  0  0  0
    5.8399   49.4009  128.8469 C   0  0  0  0  0  0  0  0  0  0  0  0
    5.0547   48.2729  128.9910 C   0  0  0  0  0  0  0  0  0  0  0  0
    5.5579   47.1679  129.6156 C   0  0  0  0  0  0  0  0  0  0  0  0
    6.8359   47.1761  130.0974 C   0  0  0  0  0  0  0  0  0  0  0  0
    7.6168   48.3028  129.9508 C   0  0  0  0  0  0  0  0  0  0  0  0
    7.9313   50.6927  129.1670 C   0  0  0  0  0  0  0  0  0  0  0  0
    8.3649   50.9839  130.4887 O   0  0  0  0  0  0  0  0  0  0  0  0
    9.3529   51.1874  130.4748 H   0  0  0  0  0  0  0  0  0  0  0  0
    7.3040   52.5606  127.5823 N   0  0  0  0  0  0  0  0  0  0  0  0
    7.0282   51.8006  128.7468 C   0  0  0  0  0  0  0  0  0  0  0  0
    6.0227   52.0186  129.4800 O   0  0  0  0  0  0  0  0  0  0  0  0
    8.1481   52.3299  127.0228 H   0  0  0  0  0  0  0  0  0  0  0  0
    6.4303   53.6351  127.1794 C   0  0  0  0  0  0  0  0  0  0  0  0
    7.1922   54.7406  126.4801 C   0  0  0  0  0  0  0  0  0  0  0  0
    5.6382   55.9174  125.2031 C   0  0  0  0  0  0  0  0  0  0  0  0
    6.4303   55.8853  126.3309 O   0  0  0  0  0  0  0  0  0  0  0  0
    9.0624   44.1870  132.0961 C   0  0  0  0  0  0  0  0  0  0  0  0
    8.7970   42.9421  132.1399 O   0  0  0  0  0  0  0  0  0  0  0  0
   10.0834   44.6284  131.2718 N   0  0  0  0  0  0  0  0  0  0  0  0
   10.3058   45.6398  131.1914 H   0  0  0  0  0  0  0  0  0  0  0  0
   10.9180   43.7362  130.4585 C   0  0  0  0  0  0  0  0  0  0  0  0
   12.3008   44.1424  130.4065 C   0  0  0  0  0  0  0  0  0  0  0  0
   12.8045   44.9644  131.3990 C   0  0  0  0  0  0  0  0  0  0  0  0
   14.1138   45.3893  131.3589 C   0  0  0  0  0  0  0  0  0  0  0  0
   14.9756   45.0268  130.3461 C   0  0  0  0  0  0  0  0  0  0  0  0
   14.4635   44.2088  129.3649 C   0  0  0  0  0  0  0  0  0  0  0  0
   15.3033   43.8238  128.3322 O   0  0  0  0  0  0  0  0  0  0  0  0
   13.1373   43.7680  129.3919 C   0  0  0  0  0  0  0  0  0  0  0  0
   15.4106   44.3429  127.4781 H   0  0  0  0  0  0  0  0  0  0  0  0
   10.3225   43.6344  129.0731 C   0  0  0  0  0  0  0  0  0  0  0  0
   10.4310   44.7671  128.2731 C   0  0  0  0  0  0  0  0  0  0  0  0
    9.9331   44.7904  126.9958 C   0  0  0  0  0  0  0  0  0  0  0  0
    9.3182   43.6496  126.5242 C   0  0  0  0  0  0  0  0  0  0  0  0
    9.2011   42.5145  127.3024 C   0  0  0  0  0  0  0  0  0  0  0  0
    9.7127   42.5296  128.5834 C   0  0  0  0  0  0  0  0  0  0  0  0
 27 28  1  0  0  0
 28 26  1  0  0  0
 26 25  1  0  0  0
 25 21  1  0  0  0
 21 22  1  0  0  0
 22 23  2  0  0  0
 22 18  1  0  0  0
 18 19  1  0  0  0
 18 12  1  0  0  0
 12 13  2  0  0  0
 13 14  1  0  0  0
 14 15  2  0  0  0
 15 16  1  0  0  0
 16 17  2  0  0  0
 16  8  1  0  0  0
  8  9  2  0  0  0
  8 10  1  0  0  0
 10  1  1  0  0  0
  1 29  1  0  0  0
 29 30  2  0  0  0
 29 31  1  0  0  0
 31 33  1  0  0  0
 33 42  1  0  0  0
 42 43  2  0  0  0
 43 44  1  0  0  0
 44 45  2  0  0  0
 45 46  1  0  0  0
 46 47  2  0  0  0
 33 34  1  0  0  0
 34 35  2  0  0  0
 35 36  1  0  0  0
 36 37  2  0  0  0
 37 38  1  0  0  0
 38 39  1  0  0  0
 38 40  2  0  0  0
  1  2  1  0  0  0
  2  3  2  0  0  0
  3  4  1  0  0  0
  4  5  2  0  0  0
  5  6  1  0  0  0
  6  7  2  0  0  0
 17 12  1  0  0  0
 47 42  1  0  0  0
 40 34  1  0  0  0
  7  2  1  0  0  0
 21 24  1  0  0  0
 19 20  1  0  0  0
 10 11  1  0  0  0
 31 32  1  0  0  0
 39 41  1  0  0  0
M  END
> <minimizedAffinity>
10.44087

> <CNNscore>
0.4946472943

> <CNNaffinity>
7.4795064926

> <CNN_VS>
3.6997177601

> <CNNaffinity_variance>
1.2754676342

$$$$
[H]Oc1c([H])c([H])c([H])c([C@]([H])(c2c([H])c([H])c([H])c([H])c2[H])N([H])C(=O)[C@@]([H])(c2c([H])c([H])c([H])c([H])c2[H])N([H])C(=O)c2c([H])c([H])c([H])c(C([H])(O[H])C(=O)N([H])C([H])([H])C([H])([H])OC([H])([H])[H])c2[H])c1[H]


 47 50  0  0  0  0  0  0  0  0999 V2000
   11.2030   46.8235  129.9956 C   0  0  0  0  0  0  0  0  0  0  0  0
   11.3005   45.7307  129.0582 C   0  0  0  0  0  0  0  0  0  0  0  0
   12.3956   44.8945  129.1324 C   0  0  0  0  0  0  0  0  0  0  0  0
   12.5330   43.8534  128.2515 C   0  0  0  0  0  0  0  0  0  0  0  0
   11.5928   43.6116  127.2760 C   0  0  0  0  0  0  0  0  0  0  0  0
   10.5043   44.4549  127.2136 C   0  0  0  0  0  0  0  0  0  0  0  0
   10.3514   45.5036  128.0891 C   0  0  0  0  0  0  0  0  0  0  0  0
    9.8486   48.9062  130.2241 C   0  0  0  0  0  0  0  0  0  0  0  0
   10.7204   49.6024  130.7863 O   0  0  0  0  0  0  0  0  0  0  0  0
   10.0031   47.5694  129.8199 N   0  0  0  0  0  0  0  0  0  0  0  0
    9.1727   47.0906  129.3523 H   0  0  0  0  0  0  0  0  0  0  0  0
    6.2155   49.4801  129.3903 C   0  0  0  0  0  0  0  0  0  0  0  0
    6.1758   50.8696  129.4448 C   0  0  0  0  0  0  0  0  0  0  0  0
    7.3039   51.6016  129.7635 C   0  0  0  0  0  0  0  0  0  0  0  0
    8.4794   50.9600  130.0297 C   0  0  0  0  0  0  0  0  0  0  0  0
    8.5414   49.5964  129.9819 C   0  0  0  0  0  0  0  0  0  0  0  0
    7.4137   48.8694  129.6648 C   0  0  0  0  0  0  0  0  0  0  0  0
    4.9676   48.7490  129.0116 C   0  0  0  0  0  0  0  0  0  0  0  0
    3.9615   49.3920  129.7824 O   0  0  0  0  0  0  0  0  0  0  0  0
    3.1807   49.6170  129.1844 H   0  0  0  0  0  0  0  0  0  0  0  0
    6.2986   46.7352  129.7645 N   0  0  0  0  0  0  0  0  0  0  0  0
    5.0468   47.3378  129.4825 C   0  0  0  0  0  0  0  0  0  0  0  0
    3.9507   46.7224  129.6095 O   0  0  0  0  0  0  0  0  0  0  0  0
    7.1634   47.2967  129.6394 H   0  0  0  0  0  0  0  0  0  0  0  0
    6.3732   45.3677  130.2168 C   0  0  0  0  0  0  0  0  0  0  0  0
    7.7791   44.9953  130.6369 C   0  0  0  0  0  0  0  0  0  0  0  0
    8.6859   42.9621  129.9487 C   0  0  0  0  0  0  0  0  0  0  0  0
    7.9121   43.6381  130.8676 O   0  0  0  0  0  0  0  0  0  0  0  0
   11.3112   46.4860  131.4437 C   0  0  0  0  0  0  0  0  0  0  0  0
   12.2782   45.7033  131.7168 O   0  0  0  0  0  0  0  0  0  0  0  0
   10.4956   46.9309  132.4702 N   0  0  0  0  0  0  0  0  0  0  0  0
    9.7164   47.5925  132.2851 H   0  0  0  0  0  0  0  0  0  0  0  0
   10.6532   46.5239  133.8714 C   0  0  0  0  0  0  0  0  0  0  0  0
   10.5613   45.0975  134.0626 C   0  0  0  0  0  0  0  0  0  0  0  0
   11.5996   44.4280  134.6858 C   0  0  0  0  0  0  0  0  0  0  0  0
   11.5499   43.0625  134.8567 C   0  0  0  0  0  0  0  0  0  0  0  0
   10.4842   42.3037  134.4225 C   0  0  0  0  0  0  0  0  0  0  0  0
    9.4574   42.9806  133.8046 C   0  0  0  0  0  0  0  0  0  0  0  0
    8.3695   42.2484  133.3571 O   0  0  0  0  0  0  0  0  0  0  0  0
    9.4923   44.3662  133.6247 C   0  0  0  0  0  0  0  0  0  0  0  0
    8.3084   41.8462  132.4378 H   0  0  0  0  0  0  0  0  0  0  0  0
    9.6351   47.2581  134.7133 C   0  0  0  0  0  0  0  0  0  0  0  0
    9.7144   47.0569  136.0873 C   0  0  0  0  0  0  0  0  0  0  0  0
    8.8475   47.6748  136.9514 C   0  0  0  0  0  0  0  0  0  0  0  0
    7.8887   48.5081  136.4144 C   0  0  0  0  0  0  0  0  0  0  0  0
    7.7939   48.7216  135.0531 C   0  0  0  0  0  0  0  0  0  0  0  0
    8.6828   48.0809  134.2150 C   0  0  0  0  0  0  0  0  0  0  0  0
 27 28  1  0  0  0
 28 26  1  0  0  0
 26 25  1  0  0  0
 25 21  1  0  0  0
 21 22  1  0  0  0
 22 23  2  0  0  0
 22 18  1  0  0  0
 18 19  1  0  0  0
 18 12  1  0  0  0
 12 13  2  0  0  0
 13 14  1  0  0  0
 14 15  2  0  0  0
 15 16  1  0  0  0
 16 17  2  0  0  0
 16  8  1  0  0  0
  8  9  2  0  0  0
  8 10  1  0  0  0
 10  1  1  0  0  0
  1 29  1  0  0  0
 29 30  2  0  0  0
 29 31  1  0  0  0
 31 33  1  0  0  0
 33 42  1  0  0  0
 42 43  2  0  0  0
 43 44  1  0  0  0
 44 45  2  0  0  0
 45 46  1  0  0  0
 46 47  2  0  0  0
 33 34  1  0  0  0
 34 35  2  0  0  0
 35 36  1  0  0  0
 36 37  2  0  0  0
 37 38  1  0  0  0
 38 39  1  0  0  0
 38 40  2  0  0  0
  1  2  1  0  0  0
  2  3  2  0  0  0
  3  4  1  0  0  0
  4  5  2  0  0  0
  5  6  1  0  0  0
  6  7  2  0  0  0
 17 12  1  0  0  0
 47 42  1  0  0  0
 40 34  1  0  0  0
  7  2  1  0  0  0
 21 24  1  0  0  0
 19 20  1  0  0  0
 10 11  1  0  0  0
 31 32  1  0  0  0
 39 41  1  0  0  0
M  END
> <minimizedAffinity>
11.47304

> <CNNscore>
0.4606246054

> <CNNaffinity>
7.3363585472

> <CNN_VS>
3.3793072701

> <CNNaffinity_variance>
0.7338250875

$$$$
[H]Oc1c([H])c([H])c([H])c([C@]([H])(c2c([H])c([H])c([H])c([H])c2[H])N([H])C(=O)[C@@]([H])(c2c([H])c([H])c([H])c([H])c2[H])N([H])C(=O)c2c([H])c([H])c([H])c(C([H])(O[H])C(=O)N([H])C([H])([H])C([H])([H])OC([H])([H])[H])c2[H])c1[H]


 47 50  0  0  0  0  0  0  0  0999 V2000
    8.2209   46.2384  133.1251 C   0  0  0  0  0  0  0  0  0  0  0  0
    8.5106   46.7977  134.4234 C   0  0  0  0  0  0  0  0  0  0  0  0
    9.5030   46.2157  135.1853 C   0  0  0  0  0  0  0  0  0  0  0  0
    9.7993   46.7078  136.4297 C   0  0  0  0  0  0  0  0  0  0  0  0
    9.1240   47.7868  136.9527 C   0  0  0  0  0  0  0  0  0  0  0  0
    8.1352   48.3582  136.1808 C   0  0  0  0  0  0  0  0  0  0  0  0
    7.8255   47.8767  134.9310 C   0  0  0  0  0  0  0  0  0  0  0  0
    7.4009   46.9623  130.8829 C   0  0  0  0  0  0  0  0  0  0  0  0
    7.6224   45.8915  130.2787 O   0  0  0  0  0  0  0  0  0  0  0  0
    7.6639   47.2058  132.2415 N   0  0  0  0  0  0  0  0  0  0  0  0
    7.4285   48.1707  132.6299 H   0  0  0  0  0  0  0  0  0  0  0  0
    6.7780   50.3550  129.3579 C   0  0  0  0  0  0  0  0  0  0  0  0
    5.6531   50.0680  128.5912 C   0  0  0  0  0  0  0  0  0  0  0  0
    5.1208   48.7931  128.5585 C   0  0  0  0  0  0  0  0  0  0  0  0
    5.7003   47.7941  129.2870 C   0  0  0  0  0  0  0  0  0  0  0  0
    6.8052   48.0533  130.0470 C   0  0  0  0  0  0  0  0  0  0  0  0
    7.3342   49.3261  130.0761 C   0  0  0  0  0  0  0  0  0  0  0  0
    7.2871   51.7607  129.3721 C   0  0  0  0  0  0  0  0  0  0  0  0
    6.3014   52.4612  130.1188 O   0  0  0  0  0  0  0  0  0  0  0  0
    6.7575   53.0262  130.8192 H   0  0  0  0  0  0  0  0  0  0  0  0
    7.0995   53.7078  127.7698 N   0  0  0  0  0  0  0  0  0  0  0  0
    7.2696   52.3178  127.9905 C   0  0  0  0  0  0  0  0  0  0  0  0
    7.4101   51.4905  127.0460 O   0  0  0  0  0  0  0  0  0  0  0  0
    6.9892   54.3346  128.5906 H   0  0  0  0  0  0  0  0  0  0  0  0
    7.0794   54.2445  126.4312 C   0  0  0  0  0  0  0  0  0  0  0  0
    8.3434   55.0179  126.1216 C   0  0  0  0  0  0  0  0  0  0  0  0
    8.4823   54.9580  123.7963 C   0  0  0  0  0  0  0  0  0  0  0  0
    8.9929   54.5290  125.0027 O   0  0  0  0  0  0  0  0  0  0  0  0
    9.3455   45.5730  132.4074 C   0  0  0  0  0  0  0  0  0  0  0  0
    9.3639   44.3069  132.5451 O   0  0  0  0  0  0  0  0  0  0  0  0
   10.3226   46.1799  131.6368 N   0  0  0  0  0  0  0  0  0  0  0  0
   10.3191   47.2069  131.4811 H   0  0  0  0  0  0  0  0  0  0  0  0
   11.4179   45.4508  130.9866 C   0  0  0  0  0  0  0  0  0  0  0  0
   10.9895   44.6821  129.8441 C   0  0  0  0  0  0  0  0  0  0  0  0
   11.2005   45.1826  128.5715 C   0  0  0  0  0  0  0  0  0  0  0  0
   10.7770   44.4820  127.4643 C   0  0  0  0  0  0  0  0  0  0  0  0
   10.1307   43.2685  127.5627 C   0  0  0  0  0  0  0  0  0  0  0  0
    9.9267   42.7807  128.8334 C   0  0  0  0  0  0  0  0  0  0  0  0
    9.2811   41.5622  128.9687 O   0  0  0  0  0  0  0  0  0  0  0  0
   10.3516   43.4791  129.9671 C   0  0  0  0  0  0  0  0  0  0  0  0
    8.2841   41.4661  129.0540 H   0  0  0  0  0  0  0  0  0  0  0  0
   12.1025   44.5766  132.0120 C   0  0  0  0  0  0  0  0  0  0  0  0
   12.4080   45.1796  133.2276 C   0  0  0  0  0  0  0  0  0  0  0  0
   13.0240   44.4840  134.2357 C   0  0  0  0  0  0  0  0  0  0  0  0
   13.3330   43.1593  134.0077 C   0  0  0  0  0  0  0  0  0  0  0  0
   13.0373   42.5420  132.8080 C   0  0  0  0  0  0  0  0  0  0  0  0
   12.4187   43.2751  131.8166 C   0  0  0  0  0  0  0  0  0  0  0  0
 27 28  1  0  0  0
 28 26  1  0  0  0
 26 25  1  0  0  0
 25 21  1  0  0  0
 21 22  1  0  0  0
 22 23  2  0  0  0
 22 18  1  0  0  0
 18 19  1  0  0  0
 18 12  1  0  0  0
 12 13  2  0  0  0
 13 14  1  0  0  0
 14 15  2  0  0  0
 15 16  1  0  0  0
 16 17  2  0  0  0
 16  8  1  0  0  0
  8  9  2  0  0  0
  8 10  1  0  0  0
 10  1  1  0  0  0
  1 29  1  0  0  0
 29 30  2  0  0  0
 29 31  1  0  0  0
 31 33  1  0  0  0
 33 42  1  0  0  0
 42 43  2  0  0  0
 43 44  1  0  0  0
 44 45  2  0  0  0
 45 46  1  0  0  0
 46 47  2  0  0  0
 33 34  1  0  0  0
 34 35  2  0  0  0
 35 36  1  0  0  0
 36 37  2  0  0  0
 37 38  1  0  0  0
 38 39  1  0  0  0
 38 40  2  0  0  0
  1  2  1  0  0  0
  2  3  2  0  0  0
  3  4  1  0  0  0
  4  5  2  0  0  0
  5  6  1  0  0  0
  6  7  2  0  0  0
 17 12  1  0  0  0
 47 42  1  0  0  0
 40 34  1  0  0  0
  7  2  1  0  0  0
 21 24  1  0  0  0
 19 20  1  0  0  0
 10 11  1  0  0  0
 31 32  1  0  0  0
 39 41  1  0  0  0
M  END
> <minimizedAffinity>
8.95512

> <CNNscore>
0.4450625777

> <CNNaffinity>
7.5779976845

> <CNN_VS>
3.3726832867

> <CNNaffinity_variance>
1.3240643740

$$$$
[H]Oc1c([H])c([H])c([H])c([C@]([H])(c2c([H])c([H])c([H])c([H])c2[H])N([H])C(=O)[C@@]([H])(c2c([H])c([H])c([H])c([H])c2[H])N([H])C(=O)c2c([H])c([H])c([H])c(C([H])(O[H])C(=O)N([H])C([H])([H])C([H])([H])OC([H])([H])[H])c2[H])c1[H]


 47 50  0  0  0  0  0  0  0  0999 V2000
   10.2676   45.6395  129.7804 C   0  0  0  0  0  0  0  0  0  0  0  0
   10.1535   44.4866  128.9200 C   0  0  0  0  0  0  0  0  0  0  0  0
    9.8766   43.2620  129.4924 C   0  0  0  0  0  0  0  0  0  0  0  0
    9.7742   42.1400  128.7119 C   0  0  0  0  0  0  0  0  0  0  0  0
    9.9421   42.1989  127.3473 C   0  0  0  0  0  0  0  0  0  0  0  0
   10.2184   43.4287  126.7892 C   0  0  0  0  0  0  0  0  0  0  0  0
   10.3246   44.5635  127.5576 C   0  0  0  0  0  0  0  0  0  0  0  0
    7.8460   46.2394  129.7988 C   0  0  0  0  0  0  0  0  0  0  0  0
    7.4100   45.1308  130.1756 O   0  0  0  0  0  0  0  0  0  0  0  0
    9.1975   46.5578  129.5837 N   0  0  0  0  0  0  0  0  0  0  0  0
    9.4312   47.5459  129.2574 H   0  0  0  0  0  0  0  0  0  0  0  0
    6.1612   49.6041  129.5453 C   0  0  0  0  0  0  0  0  0  0  0  0
    4.8665   49.1989  129.2370 C   0  0  0  0  0  0  0  0  0  0  0  0
    4.5543   47.8599  129.0976 C   0  0  0  0  0  0  0  0  0  0  0  0
    5.5243   46.9134  129.2638 C   0  0  0  0  0  0  0  0  0  0  0  0
    6.8022   47.2885  129.5670 C   0  0  0  0  0  0  0  0  0  0  0  0
    7.1102   48.6253  129.7042 C   0  0  0  0  0  0  0  0  0  0  0  0
    6.4267   51.0661  129.7104 C   0  0  0  0  0  0  0  0  0  0  0  0
    6.7600   51.4916  128.3960 O   0  0  0  0  0  0  0  0  0  0  0  0
    6.2313   52.3215  128.1736 H   0  0  0  0  0  0  0  0  0  0  0  0
    8.0998   50.2396  131.4168 N   0  0  0  0  0  0  0  0  0  0  0  0
    7.6361   51.2670  130.5570 C   0  0  0  0  0  0  0  0  0  0  0  0
    8.2098   52.3888  130.4652 O   0  0  0  0  0  0  0  0  0  0  0  0
    7.5820   49.3397  131.4453 H   0  0  0  0  0  0  0  0  0  0  0  0
    9.2687   50.4376  132.2382 C   0  0  0  0  0  0  0  0  0  0  0  0
   10.3001   49.3531  132.0106 C   0  0  0  0  0  0  0  0  0  0  0  0
   10.9020   49.3486  129.7594 C   0  0  0  0  0  0  0  0  0  0  0  0
   10.1684   48.7609  130.7677 O   0  0  0  0  0  0  0  0  0  0  0  0
   10.3734   45.3842  131.2454 C   0  0  0  0  0  0  0  0  0  0  0  0
   11.4435   45.8355  131.7684 O   0  0  0  0  0  0  0  0  0  0  0  0
    9.4530   44.7353  132.0508 N   0  0  0  0  0  0  0  0  0  0  0  0
    8.5577   44.3812  131.6609 H   0  0  0  0  0  0  0  0  0  0  0  0
    9.6497   44.4976  133.4856 C   0  0  0  0  0  0  0  0  0  0  0  0
    9.3565   45.6523  134.2984 C   0  0  0  0  0  0  0  0  0  0  0  0
    9.7440   45.6634  135.6266 C   0  0  0  0  0  0  0  0  0  0  0  0
    9.4526   46.7416  136.4321 C   0  0  0  0  0  0  0  0  0  0  0  0
    8.7705   47.8456  135.9676 C   0  0  0  0  0  0  0  0  0  0  0  0
    8.3906   47.8233  134.6449 C   0  0  0  0  0  0  0  0  0  0  0  0
    7.7043   48.9181  134.1446 O   0  0  0  0  0  0  0  0  0  0  0  0
    8.6799   46.7372  133.8141 C   0  0  0  0  0  0  0  0  0  0  0  0
    6.7027   49.0026  134.1598 H   0  0  0  0  0  0  0  0  0  0  0  0
   11.0618   44.0094  133.7133 C   0  0  0  0  0  0  0  0  0  0  0  0
   11.5796   43.1544  132.7460 C   0  0  0  0  0  0  0  0  0  0  0  0
   12.8518   42.6523  132.8429 C   0  0  0  0  0  0  0  0  0  0  0  0
   13.6084   43.0234  133.9347 C   0  0  0  0  0  0  0  0  0  0  0  0
   13.1129   43.8718  134.9055 C   0  0  0  0  0  0  0  0  0  0  0  0
   11.8276   44.3553  134.7745 C   0  0  0  0  0  0  0  0  0  0  0  0
 27 28  1  0  0  0
 28 26  1  0  0  0
 26 25  1  0  0  0
 25 21  1  0  0  0
 21 22  1  0  0  0
 22 23  2  0  0  0
 22 18  1  0  0  0
 18 19  1  0  0  0
 18 12  1  0  0  0
 12 13  2  0  0  0
 13 14  1  0  0  0
 14 15  2  0  0  0
 15 16  1  0  0  0
 16 17  2  0  0  0
 16  8  1  0  0  0
  8  9  2  0  0  0
  8 10  1  0  0  0
 10  1  1  0  0  0
  1 29  1  0  0  0
 29 30  2  0  0  0
 29 31  1  0  0  0
 31 33  1  0  0  0
 33 42  1  0  0  0
 42 43  2  0  0  0
 43 44  1  0  0  0
 44 45  2  0  0  0
 45 46  1  0  0  0
 46 47  2  0  0  0
 33 34  1  0  0  0
 34 35  2  0  0  0
 35 36  1  0  0  0
 36 37  2  0  0  0
 37 38  1  0  0  0
 38 39  1  0  0  0
 38 40  2  0  0  0
  1  2  1  0  0  0
  2  3  2  0  0  0
  3  4  1  0  0  0
  4  5  2  0  0  0
  5  6  1  0  0  0
  6  7  2  0  0  0
 17 12  1  0  0  0
 47 42  1  0  0  0
 40 34  1  0  0  0
  7  2  1  0  0  0
 21 24  1  0  0  0
 19 20  1  0  0  0
 10 11  1  0  0  0
 31 32  1  0  0  0
 39 41  1  0  0  0
M  END
> <minimizedAffinity>
10.84838

> <CNNscore>
0.4377902746

> <CNNaffinity>
7.4683952332

> <CNN_VS>
3.2695908546

> <CNNaffinity_variance>
0.8322321773

$$$$
[H]Oc1c([H])c([H])c([H])c([C@]([H])(c2c([H])c([H])c([H])c([H])c2[H])N([H])C(=O)[C@@]([H])(c2c([H])c([H])c([H])c([H])c2[H])N([H])C(=O)c2c([H])c([H])c([H])c(C([H])(O[H])C(=O)N([H])C([H])([H])C([H])([H])OC([H])([H])[H])c2[H])c1[H]


 47 50  0  0  0  0  0  0  0  0999 V2000
    7.7809   49.2757  130.2355 C   0  0  0  0  0  0  0  0  0  0  0  0
    8.6052   49.6899  131.3451 C   0  0  0  0  0  0  0  0  0  0  0  0
    9.1485   48.7187  132.1611 C   0  0  0  0  0  0  0  0  0  0  0  0
    9.9255   49.0707  133.2339 C   0  0  0  0  0  0  0  0  0  0  0  0
   10.1860   50.3897  133.5277 C   0  0  0  0  0  0  0  0  0  0  0  0
    9.6368   51.3490  132.7042 C   0  0  0  0  0  0  0  0  0  0  0  0
    8.8552   51.0130  131.6245 C   0  0  0  0  0  0  0  0  0  0  0  0
    7.1502   51.3233  128.9573 C   0  0  0  0  0  0  0  0  0  0  0  0
    6.2745   51.7396  129.7452 O   0  0  0  0  0  0  0  0  0  0  0  0
    7.9095   50.1524  129.1211 N   0  0  0  0  0  0  0  0  0  0  0  0
    8.6241   49.9118  128.3669 H   0  0  0  0  0  0  0  0  0  0  0  0
    7.1288   54.2871  126.6251 C   0  0  0  0  0  0  0  0  0  0  0  0
    7.7002   53.7063  125.4975 C   0  0  0  0  0  0  0  0  0  0  0  0
    8.0995   52.3833  125.5036 C   0  0  0  0  0  0  0  0  0  0  0  0
    7.9339   51.6270  126.6284 C   0  0  0  0  0  0  0  0  0  0  0  0
    7.3750   52.1766  127.7469 C   0  0  0  0  0  0  0  0  0  0  0  0
    6.9790   53.4971  127.7375 C   0  0  0  0  0  0  0  0  0  0  0  0
    6.6924   55.7148  126.5438 C   0  0  0  0  0  0  0  0  0  0  0  0
    6.2401   55.9972  127.8613 O   0  0  0  0  0  0  0  0  0  0  0  0
    6.6490   56.8657  128.1716 H   0  0  0  0  0  0  0  0  0  0  0  0
    4.2946   55.1762  125.9482 N   0  0  0  0  0  0  0  0  0  0  0  0
    5.5135   55.8315  125.6404 C   0  0  0  0  0  0  0  0  0  0  0  0
    5.6654   56.5345  124.6016 O   0  0  0  0  0  0  0  0  0  0  0  0
    4.2357   54.6131  126.8189 H   0  0  0  0  0  0  0  0  0  0  0  0
    3.1557   55.2877  125.0702 C   0  0  0  0  0  0  0  0  0  0  0  0
    2.4070   53.9767  124.9593 C   0  0  0  0  0  0  0  0  0  0  0  0
    1.7580   52.2932  126.4339 C   0  0  0  0  0  0  0  0  0  0  0  0
    1.7683   53.6397  126.1389 O   0  0  0  0  0  0  0  0  0  0  0  0
    7.9690   47.8846  129.7334 C   0  0  0  0  0  0  0  0  0  0  0  0
    7.2275   47.5936  128.7396 O   0  0  0  0  0  0  0  0  0  0  0  0
    8.8406   46.9278  130.2251 N   0  0  0  0  0  0  0  0  0  0  0  0
    9.4792   47.1426  131.0157 H   0  0  0  0  0  0  0  0  0  0  0  0
    8.9419   45.5651  129.6896 C   0  0  0  0  0  0  0  0  0  0  0  0
    8.4859   44.5561  130.6136 C   0  0  0  0  0  0  0  0  0  0  0  0
    8.4052   44.8570  131.9617 C   0  0  0  0  0  0  0  0  0  0  0  0
    7.9990   43.9040  132.8690 C   0  0  0  0  0  0  0  0  0  0  0  0
    7.6595   42.6230  132.4900 C   0  0  0  0  0  0  0  0  0  0  0  0
    7.7433   42.3356  131.1466 C   0  0  0  0  0  0  0  0  0  0  0  0
    7.4076   41.0571  130.7308 O   0  0  0  0  0  0  0  0  0  0  0  0
    8.1525   43.2920  130.2132 C   0  0  0  0  0  0  0  0  0  0  0  0
    8.0666   40.3008  130.6668 H   0  0  0  0  0  0  0  0  0  0  0  0
   10.3682   45.3116  129.2587 C   0  0  0  0  0  0  0  0  0  0  0  0
   11.2632   44.9709  130.2674 C   0  0  0  0  0  0  0  0  0  0  0  0
   12.5820   44.7126  129.9956 C   0  0  0  0  0  0  0  0  0  0  0  0
   12.9975   44.8002  128.6834 C   0  0  0  0  0  0  0  0  0  0  0  0
   12.1242   45.1362  127.6674 C   0  0  0  0  0  0  0  0  0  0  0  0
   10.8051   45.3909  127.9801 C   0  0  0  0  0  0  0  0  0  0  0  0
 27 28  1  0  0  0
 28 26  1  0  0  0
 26 25  1  0  0  0
 25 21  1  0  0  0
 21 22  1  0  0  0
 22 23  2  0  0  0
 22 18  1  0  0  0
 18 19  1  0  0  0
 18 12  1  0  0  0
 12 13  2  0  0  0
 13 14  1  0  0  0
 14 15  2  0  0  0
 15 16  1  0  0  0
 16 17  2  0  0  0
 16  8  1  0  0  0
  8  9  2  0  0  0
  8 10  1  0  0  0
 10  1  1  0  0  0
  1 29  1  0  0  0
 29 30  2  0  0  0
 29 31  1  0  0  0
 31 33  1  0  0  0
 33 42  1  0  0  0
 42 43  2  0  0  0
 43 44  1  0  0  0
 44 45  2  0  0  0
 45 46  1  0  0  0
 46 47  2  0  0  0
 33 34  1  0  0  0
 34 35  2  0  0  0
 35 36  1  0  0  0
 36 37  2  0  0  0
 37 38  1  0  0  0
 38 39  1  0  0  0
 38 40  2  0  0  0
  1  2  1  0  0  0
  2  3  2  0  0  0
  3  4  1  0  0  0
  4  5  2  0  0  0
  5  6  1  0  0  0
  6  7  2  0  0  0
 17 12  1  0  0  0
 47 42  1  0  0  0
 40 34  1  0  0  0
  7  2  1  0  0  0
 21 24  1  0  0  0
 19 20  1  0  0  0
 10 11  1  0  0  0
 31 32  1  0  0  0
 39 41  1  0  0  0
M  END
> <minimizedAffinity>
9.10900

> <CNNscore>
0.4369197488

> <CNNaffinity>
7.1295013428

> <CNN_VS>
3.1150200367

> <CNNaffinity_variance>
0.5160309672

$$$$
[H]Oc1c([H])c([H])c([H])c([C@]([H])(c2c([H])c([H])c([H])c([H])c2[H])N([H])C(=O)[C@@]([H])(c2c([H])c([H])c([H])c([H])c2[H])N([H])C(=O)c2c([H])c([H])c([H])c(C([H])(O[H])C(=O)N([H])C([H])([H])C([H])([H])OC([H])([H])[H])c2[H])c1[H]


 47 50  0  0  0  0  0  0  0  0999 V2000
   10.3473   46.0982  129.5905 C   0  0  0  0  0  0  0  0  0  0  0  0
   10.1382   44.9878  128.6930 C   0  0  0  0  0  0  0  0  0  0  0  0
    9.9469   43.7319  129.2318 C   0  0  0  0  0  0  0  0  0  0  0  0
    9.7590   42.6485  128.4135 C   0  0  0  0  0  0  0  0  0  0  0  0
    9.7548   42.7778  127.0435 C   0  0  0  0  0  0  0  0  0  0  0  0
    9.9471   44.0380  126.5192 C   0  0  0  0  0  0  0  0  0  0  0  0
   10.1372   45.1349  127.3257 C   0  0  0  0  0  0  0  0  0  0  0  0
    8.0230   47.0048  129.5972 C   0  0  0  0  0  0  0  0  0  0  0  0
    7.4494   45.9702  129.9988 O   0  0  0  0  0  0  0  0  0  0  0  0
    9.4035   47.1420  129.3741 N   0  0  0  0  0  0  0  0  0  0  0  0
    9.7612   48.0843  129.0256 H   0  0  0  0  0  0  0  0  0  0  0  0
    6.8052   50.5511  129.1911 C   0  0  0  0  0  0  0  0  0  0  0  0
    5.4518   50.3141  128.9727 C   0  0  0  0  0  0  0  0  0  0  0  0
    4.9512   49.0264  128.9410 C   0  0  0  0  0  0  0  0  0  0  0  0
    5.7897   47.9648  129.1265 C   0  0  0  0  0  0  0  0  0  0  0  0
    7.1220   48.1741  129.3427 C   0  0  0  0  0  0  0  0  0  0  0  0
    7.6181   49.4601  129.3725 C   0  0  0  0  0  0  0  0  0  0  0  0
    7.2780   51.9685  129.2422 C   0  0  0  0  0  0  0  0  0  0  0  0
    6.2781   52.6225  130.0117 O   0  0  0  0  0  0  0  0  0  0  0  0
    6.7227   53.1797  130.7257 H   0  0  0  0  0  0  0  0  0  0  0  0
    7.1003   53.9621  127.6968 N   0  0  0  0  0  0  0  0  0  0  0  0
    7.2398   52.5628  127.8765 C   0  0  0  0  0  0  0  0  0  0  0  0
    7.3346   51.7578  126.9074 O   0  0  0  0  0  0  0  0  0  0  0  0
    7.0274   54.5693  128.5363 H   0  0  0  0  0  0  0  0  0  0  0  0
    7.0600   54.5349  126.3737 C   0  0  0  0  0  0  0  0  0  0  0  0
    8.4165   55.0573  125.9509 C   0  0  0  0  0  0  0  0  0  0  0  0
    8.0572   54.0014  123.9049 C   0  0  0  0  0  0  0  0  0  0  0  0
    8.9505   54.3319  124.9013 O   0  0  0  0  0  0  0  0  0  0  0  0
   10.3538   45.7977  131.0508 C   0  0  0  0  0  0  0  0  0  0  0  0
   11.3572   46.2806  131.6690 O   0  0  0  0  0  0  0  0  0  0  0  0
    9.4081   45.0786  131.7617 N   0  0  0  0  0  0  0  0  0  0  0  0
    8.5638   44.6963  131.2926 H   0  0  0  0  0  0  0  0  0  0  0  0
    9.5065   44.8009  133.1995 C   0  0  0  0  0  0  0  0  0  0  0  0
    9.2548   45.9595  134.0205 C   0  0  0  0  0  0  0  0  0  0  0  0
    9.1817   45.8147  135.3946 C   0  0  0  0  0  0  0  0  0  0  0  0
    8.9155   46.8995  136.2000 C   0  0  0  0  0  0  0  0  0  0  0  0
    8.7096   48.1633  135.6899 C   0  0  0  0  0  0  0  0  0  0  0  0
    8.7851   48.2951  134.3220 C   0  0  0  0  0  0  0  0  0  0  0  0
    8.5846   49.5526  133.7756 O   0  0  0  0  0  0  0  0  0  0  0  0
    9.0556   47.2042  133.4910 C   0  0  0  0  0  0  0  0  0  0  0  0
    7.6842   49.9024  133.4975 H   0  0  0  0  0  0  0  0  0  0  0  0
   10.8637   44.2039  133.4924 C   0  0  0  0  0  0  0  0  0  0  0  0
   11.3074   43.2245  132.6101 C   0  0  0  0  0  0  0  0  0  0  0  0
   12.5252   42.6157  132.7714 C   0  0  0  0  0  0  0  0  0  0  0  0
   13.3030   43.0065  133.8412 C   0  0  0  0  0  0  0  0  0  0  0  0
   12.8809   43.9776  134.7280 C   0  0  0  0  0  0  0  0  0  0  0  0
   11.6485   44.5663  134.5340 C   0  0  0  0  0  0  0  0  0  0  0  0
 27 28  1  0  0  0
 28 26  1  0  0  0
 26 25  1  0  0  0
 25 21  1  0  0  0
 21 22  1  0  0  0
 22 23  2  0  0  0
 22 18  1  0  0  0
 18 19  1  0  0  0
 18 12  1  0  0  0
 12 13  2  0  0  0
 13 14  1  0  0  0
 14 15  2  0  0  0
 15 16  1  0  0  0
 16 17  2  0  0  0
 16  8  1  0  0  0
  8  9  2  0  0  0
  8 10  1  0  0  0
 10  1  1  0  0  0
  1 29  1  0  0  0
 29 30  2  0  0  0
 29 31  1  0  0  0
 31 33  1  0  0  0
 33 42  1  0  0  0
 42 43  2  0  0  0
 43 44  1  0  0  0
 44 45  2  0  0  0
 45 46  1  0  0  0
 46 47  2  0  0  0
 33 34  1  0  0  0
 34 35  2  0  0  0
 35 36  1  0  0  0
 36 37  2  0  0  0
 37 38  1  0  0  0
 38 39  1  0  0  0
 38 40  2  0  0  0
  1  2  1  0  0  0
  2  3  2  0  0  0
  3  4  1  0  0  0
  4  5  2  0  0  0
  5  6  1  0  0  0
  6  7  2  0  0  0
 17 12  1  0  0  0
 47 42  1  0  0  0
 40 34  1  0  0  0
  7  2  1  0  0  0
 21 24  1  0  0  0
 19 20  1  0  0  0
 10 11  1  0  0  0
 31 32  1  0  0  0
 39 41  1  0  0  0
M  END
> <minimizedAffinity>
7.96458

> <CNNscore>
0.4331551194

> <CNNaffinity>
7.4704618454

> <CNN_VS>
3.2358686924

> <CNNaffinity_variance>
1.7243343592

$$$$
[H]Oc1c([H])c([H])c([H])c([C@]([H])(c2c([H])c([H])c([H])c([H])c2[H])N([H])C(=O)[C@@]([H])(c2c([H])c([H])c([H])c([H])c2[H])N([H])C(=O)c2c([H])c([H])c([H])c(C([H])(O[H])C(=O)N([H])C([H])([H])C([H])([H])OC([H])([H])[H])c2[H])c1[H]


 47 50  0  0  0  0  0  0  0  0999 V2000
    7.7022   48.8542  130.8568 C   0  0  0  0  0  0  0  0  0  0  0  0
    8.6533   49.2784  131.8558 C   0  0  0  0  0  0  0  0  0  0  0  0
    9.1277   48.3436  132.7531 C   0  0  0  0  0  0  0  0  0  0  0  0
   10.0213   48.7087  133.7261 C   0  0  0  0  0  0  0  0  0  0  0  0
   10.4692   50.0052  133.8372 C   0  0  0  0  0  0  0  0  0  0  0  0
    9.9870   50.9283  132.9343 C   0  0  0  0  0  0  0  0  0  0  0  0
    9.0903   50.5787  131.9528 C   0  0  0  0  0  0  0  0  0  0  0  0
    7.0864   50.8702  129.5223 C   0  0  0  0  0  0  0  0  0  0  0  0
    6.3326   51.3970  130.3679 O   0  0  0  0  0  0  0  0  0  0  0  0
    7.7729   49.6546  129.6815 N   0  0  0  0  0  0  0  0  0  0  0  0
    8.3832   49.3172  128.8746 H   0  0  0  0  0  0  0  0  0  0  0  0
    7.1594   53.7202  127.0533 C   0  0  0  0  0  0  0  0  0  0  0  0
    7.4276   53.0151  125.8844 C   0  0  0  0  0  0  0  0  0  0  0  0
    7.5983   51.6439  125.9040 C   0  0  0  0  0  0  0  0  0  0  0  0
    7.5033   50.9625  127.0834 C   0  0  0  0  0  0  0  0  0  0  0  0
    7.2405   51.6343  128.2432 C   0  0  0  0  0  0  0  0  0  0  0  0
    7.0720   53.0025  128.2199 C   0  0  0  0  0  0  0  0  0  0  0  0
    6.9571   55.1986  126.9595 C   0  0  0  0  0  0  0  0  0  0  0  0
    5.5985   55.3212  126.5607 O   0  0  0  0  0  0  0  0  0  0  0  0
    5.1401   55.9970  127.1531 H   0  0  0  0  0  0  0  0  0  0  0  0
    7.2661   55.8849  124.5455 N   0  0  0  0  0  0  0  0  0  0  0  0
    7.7904   55.7530  125.8561 C   0  0  0  0  0  0  0  0  0  0  0  0
    8.9713   56.0890  126.1541 O   0  0  0  0  0  0  0  0  0  0  0  0
    6.2864   55.5899  124.3668 H   0  0  0  0  0  0  0  0  0  0  0  0
    8.0759   56.4187  123.4780 C   0  0  0  0  0  0  0  0  0  0  0  0
    8.6684   55.3181  122.6240 C   0  0  0  0  0  0  0  0  0  0  0  0
    6.7968   54.0894  121.9776 C   0  0  0  0  0  0  0  0  0  0  0  0
    7.8180   54.9359  121.6023 O   0  0  0  0  0  0  0  0  0  0  0  0
    7.7590   47.4271  130.4295 C   0  0  0  0  0  0  0  0  0  0  0  0
    6.9366   47.1368  129.5013 O   0  0  0  0  0  0  0  0  0  0  0  0
    8.5905   46.4373  130.9251 N   0  0  0  0  0  0  0  0  0  0  0  0
    9.2920   46.6479  131.6617 H   0  0  0  0  0  0  0  0  0  0  0  0
    8.5607   45.0429  130.4680 C   0  0  0  0  0  0  0  0  0  0  0  0
    8.9535   44.1020  131.4879 C   0  0  0  0  0  0  0  0  0  0  0  0
    7.9788   43.4087  132.1834 C   0  0  0  0  0  0  0  0  0  0  0  0
    8.3251   42.5246  133.1808 C   0  0  0  0  0  0  0  0  0  0  0  0
    9.6364   42.2891  133.5342 C   0  0  0  0  0  0  0  0  0  0  0  0
   10.5970   42.9841  132.8353 C   0  0  0  0  0  0  0  0  0  0  0  0
   11.9259   42.7700  133.1640 O   0  0  0  0  0  0  0  0  0  0  0  0
   10.2618   43.8838  131.8196 C   0  0  0  0  0  0  0  0  0  0  0  0
   12.4207   43.3013  133.8594 H   0  0  0  0  0  0  0  0  0  0  0  0
    9.4263   44.9115  129.2361 C   0  0  0  0  0  0  0  0  0  0  0  0
    9.3751   43.6878  128.5770 C   0  0  0  0  0  0  0  0  0  0  0  0
   10.1124   43.4541  127.4450 C   0  0  0  0  0  0  0  0  0  0  0  0
   10.9111   44.4757  126.9753 C   0  0  0  0  0  0  0  0  0  0  0  0
   10.9753   45.6983  127.6147 C   0  0  0  0  0  0  0  0  0  0  0  0
   10.2202   45.8953  128.7522 C   0  0  0  0  0  0  0  0  0  0  0  0
 27 28  1  0  0  0
 28 26  1  0  0  0
 26 25  1  0  0  0
 25 21  1  0  0  0
 21 22  1  0  0  0
 22 23  2  0  0  0
 22 18  1  0  0  0
 18 19  1  0  0  0
 18 12  1  0  0  0
 12 13  2  0  0  0
 13 14  1  0  0  0
 14 15  2  0  0  0
 15 16  1  0  0  0
 16 17  2  0  0  0
 16  8  1  0  0  0
  8  9  2  0  0  0
  8 10  1  0  0  0
 10  1  1  0  0  0
  1 29  1  0  0  0
 29 30  2  0  0  0
 29 31  1  0  0  0
 31 33  1  0  0  0
 33 42  1  0  0  0
 42 43  2  0  0  0
 43 44  1  0  0  0
 44 45  2  0  0  0
 45 46  1  0  0  0
 46 47  2  0  0  0
 33 34  1  0  0  0
 34 35  2  0  0  0
 35 36  1  0  0  0
 36 37  2  0  0  0
 37 38  1  0  0  0
 38 39  1  0  0  0
 38 40  2  0  0  0
  1  2  1  0  0  0
  2  3  2  0  0  0
  3  4  1  0  0  0
  4  5  2  0  0  0
  5  6  1  0  0  0
  6  7  2  0  0  0
 17 12  1  0  0  0
 47 42  1  0  0  0
 40 34  1  0  0  0
  7  2  1  0  0  0
 21 24  1  0  0  0
 19 20  1  0  0  0
 10 11  1  0  0  0
 31 32  1  0  0  0
 39 41  1  0  0  0
M  END
> <minimizedAffinity>
7.71244

> <CNNscore>
0.4176516831

> <CNNaffinity>
7.0980606079

> <CNN_VS>
2.9645168781

> <CNNaffinity_variance>
0.4859518409

$$$$
[H]c1c([H])c(-c2c([H])c([H])c(C([H])(C#N)C([H])([H])[H])c([H])c2[H])c([H])c([H])c1C(=O)[C@@]([H])(N([H])C(=O)C([H])([H])C([H])([H])C([H])([H])C([H])([H])C([H])([H])C([H])([H])C([H])([H])C([H])([H])C([H])([H])C([H])([H])C#N)C([H])([H])SC([H])(N([H])[H])N([H])[H]


 44 45  0  0  0  0  0  0  0  0999 V2000
    9.0202   48.0825  131.1716 C   0  0  0  0  0  0  0  0  0  0  0  0
   10.3648   47.5306  131.0475 N   0  0  0  0  0  0  0  0  0  0  0  0
   10.7626   46.4792  131.8940 C   0  0  0  0  0  0  0  0  0  0  0  0
    9.9371   46.0446  132.7401 O   0  0  0  0  0  0  0  0  0  0  0  0
   10.9984   47.9209  130.3412 H   0  0  0  0  0  0  0  0  0  0  0  0
   12.1163   45.8766  131.8134 C   0  0  0  0  0  0  0  0  0  0  0  0
   12.2036   44.6546  130.9658 C   0  0  0  0  0  0  0  0  0  0  0  0
   12.6832   43.4195  131.6449 C   0  0  0  0  0  0  0  0  0  0  0  0
   11.6110   42.3684  131.7839 C   0  0  0  0  0  0  0  0  0  0  0  0
   10.2632   42.8129  131.3033 C   0  0  0  0  0  0  0  0  0  0  0  0
    9.1462   42.6579  132.2775 C   0  0  0  0  0  0  0  0  0  0  0  0
    9.6110   42.5751  133.7266 C   0  0  0  0  0  0  0  0  0  0  0  0
    9.8250   43.9345  134.3138 C   0  0  0  0  0  0  0  0  0  0  0  0
   10.9130   43.9892  135.3305 C   0  0  0  0  0  0  0  0  0  0  0  0
   12.2543   43.8348  134.6905 C   0  0  0  0  0  0  0  0  0  0  0  0
   12.8561   45.1752  134.6369 C   0  0  0  0  0  0  0  0  0  0  0  0
   13.3162   46.2369  134.5858 N   0  0  0  0  0  0  0  0  0  0  0  0
    8.1229   47.2385  130.3292 C   0  0  0  0  0  0  0  0  0  0  0  0
    6.8970   47.4841  130.2502 O   0  0  0  0  0  0  0  0  0  0  0  0
    9.7867   43.8811  128.2355 C   0  0  0  0  0  0  0  0  0  0  0  0
   10.3030   45.1492  128.0754 C   0  0  0  0  0  0  0  0  0  0  0  0
    9.7706   46.2465  128.7383 C   0  0  0  0  0  0  0  0  0  0  0  0
    8.6951   46.1120  129.5903 C   0  0  0  0  0  0  0  0  0  0  0  0
    8.1768   44.8293  129.7480 C   0  0  0  0  0  0  0  0  0  0  0  0
    8.7145   43.7395  129.0827 C   0  0  0  0  0  0  0  0  0  0  0  0
   11.5832   40.5882  126.1578 C   0  0  0  0  0  0  0  0  0  0  0  0
   12.1634   41.8594  126.1440 C   0  0  0  0  0  0  0  0  0  0  0  0
   11.5473   42.8920  126.8199 C   0  0  0  0  0  0  0  0  0  0  0  0
   10.3732   42.7534  127.5219 C   0  0  0  0  0  0  0  0  0  0  0  0
    9.7995   41.4964  127.5340 C   0  0  0  0  0  0  0  0  0  0  0  0
   10.4094   40.4521  126.8599 C   0  0  0  0  0  0  0  0  0  0  0  0
   13.4059   39.9076  124.6254 C   0  0  0  0  0  0  0  0  0  0  0  0
   12.1991   39.4424  125.4362 C   0  0  0  0  0  0  0  0  0  0  0  0
   12.6255   38.4395  126.3948 C   0  0  0  0  0  0  0  0  0  0  0  0
   12.9746   37.6412  127.1843 N   0  0  0  0  0  0  0  0  0  0  0  0
    9.0058   49.4659  130.5184 C   0  0  0  0  0  0  0  0  0  0  0  0
    7.7280   49.6549  129.2815 S   0  0  0  0  0  0  0  0  0  0  0  0
    6.1402   50.1425  130.0034 C   0  0  0  0  0  0  0  0  0  0  0  0
    6.1576   51.5832  130.2990 N   0  0  0  0  0  0  0  0  0  0  0  0
    5.0141   49.8451  129.1615 N   0  0  0  0  0  0  0  0  0  0  0  0
    5.2123   52.0051  130.0588 H   0  0  0  0  0  0  0  0  0  0  0  0
    6.8204   52.0687  129.6218 H   0  0  0  0  0  0  0  0  0  0  0  0
    5.3632   49.4590  128.2571 H   0  0  0  0  0  0  0  0  0  0  0  0
    4.4476   49.0984  129.6285 H   0  0  0  0  0  0  0  0  0  0  0  0
 32 33  1  0  0  0
 33 34  1  0  0  0
 34 35  3  0  0  0
 33 26  1  0  0  0
 26 27  2  0  0  0
 27 28  1  0  0  0
 28 29  2  0  0  0
 29 30  1  0  0  0
 30 31  2  0  0  0
 29 20  1  0  0  0
 20 21  2  0  0  0
 21 22  1  0  0  0
 22 23  2  0  0  0
 23 24  1  0  0  0
 24 25  2  0  0  0
 23 18  1  0  0  0
 18 19  2  0  0  0
 18  1  1  0  0  0
  1 36  1  0  0  0
 36 37  1  0  0  0
 37 38  1  0  0  0
 38 39  1  0  0  0
 38 40  1  0  0  0
  1  2  1  0  0  0
  2  3  1  0  0  0
  3  4  2  0  0  0
  3  6  1  0  0  0
  6  7  1  0  0  0
  7  8  1  0  0  0
  8  9  1  0  0  0
  9 10  1  0  0  0
 10 11  1  0  0  0
 11 12  1  0  0  0
 12 13  1  0  0  0
 13 14  1  0  0  0
 14 15  1  0  0  0
 15 16  1  0  0  0
 16 17  3  0  0  0
 31 26  1  0  0  0
 25 20  1  0  0  0
 39 41  1  0  0  0
 39 42  1  0  0  0
 40 43  1  0  0  0
 40 44  1  0  0  0
  2  5  1  0  0  0
M  END
> <minimizedAffinity>
11.25457

> <CNNscore>
0.4197810292

> <CNNaffinity>
8.0066795349

> <CNN_VS>
3.3610522747

> <CNNaffinity_variance>
0.4150772095

$$$$
[H]c1c([H])c(-c2c([H])c([H])c(C([H])(C#N)C([H])([H])[H])c([H])c2[H])c([H])c([H])c1C(=O)[C@@]([H])(N([H])C(=O)C([H])([H])C([H])([H])C([H])([H])C([H])([H])C([H])([H])C([H])([H])C([H])([H])C([H])([H])C([H])([H])C([H])([H])C#N)C([H])([H])SC([H])(N([H])[H])N([H])[H]


 44 45  0  0  0  0  0  0  0  0999 V2000
    8.1639   47.5509  131.3442 C   0  0  0  0  0  0  0  0  0  0  0  0
    8.9336   46.5874  132.1235 N   0  0  0  0  0  0  0  0  0  0  0  0
    8.2615   45.6898  132.9737 C   0  0  0  0  0  0  0  0  0  0  0  0
    7.0049   45.7480  133.0355 O   0  0  0  0  0  0  0  0  0  0  0  0
    9.9558   46.5816  132.0361 H   0  0  0  0  0  0  0  0  0  0  0  0
    8.9902   44.6868  133.7892 C   0  0  0  0  0  0  0  0  0  0  0  0
    9.2419   45.0960  135.1993 C   0  0  0  0  0  0  0  0  0  0  0  0
   10.6678   45.2940  135.5792 C   0  0  0  0  0  0  0  0  0  0  0  0
   11.4024   46.2255  134.6484 C   0  0  0  0  0  0  0  0  0  0  0  0
   12.5294   45.5738  133.9066 C   0  0  0  0  0  0  0  0  0  0  0  0
   12.6901   45.9856  132.4834 C   0  0  0  0  0  0  0  0  0  0  0  0
   11.5497   45.5230  131.5845 C   0  0  0  0  0  0  0  0  0  0  0  0
   11.5131   44.0319  131.4663 C   0  0  0  0  0  0  0  0  0  0  0  0
   12.2745   43.4992  130.3015 C   0  0  0  0  0  0  0  0  0  0  0  0
   12.8580   44.6086  129.4884 C   0  0  0  0  0  0  0  0  0  0  0  0
   14.2659   44.2615  129.2449 C   0  0  0  0  0  0  0  0  0  0  0  0
   15.3718   43.9880  129.0359 N   0  0  0  0  0  0  0  0  0  0  0  0
    7.4423   46.7810  130.2887 C   0  0  0  0  0  0  0  0  0  0  0  0
    6.2439   47.0273  130.0196 O   0  0  0  0  0  0  0  0  0  0  0  0
    9.5421   43.6432  128.2469 C   0  0  0  0  0  0  0  0  0  0  0  0
    9.7310   44.9661  127.9085 C   0  0  0  0  0  0  0  0  0  0  0  0
    9.0530   45.9917  128.5531 C   0  0  0  0  0  0  0  0  0  0  0  0
    8.1556   45.7271  129.5657 C   0  0  0  0  0  0  0  0  0  0  0  0
    7.9677   44.3894  129.9032 C   0  0  0  0  0  0  0  0  0  0  0  0
    8.6489   43.3720  129.2549 C   0  0  0  0  0  0  0  0  0  0  0  0
   11.6234   40.5264  126.1635 C   0  0  0  0  0  0  0  0  0  0  0  0
   10.4382   40.2701  126.8580 C   0  0  0  0  0  0  0  0  0  0  0  0
    9.8056   41.3011  127.5209 C   0  0  0  0  0  0  0  0  0  0  0  0
   10.2727   42.5940  127.5467 C   0  0  0  0  0  0  0  0  0  0  0  0
   11.4454   42.8464  126.8608 C   0  0  0  0  0  0  0  0  0  0  0  0
   12.0886   41.8194  126.1910 C   0  0  0  0  0  0  0  0  0  0  0  0
   13.6221   40.0008  124.7986 C   0  0  0  0  0  0  0  0  0  0  0  0
   12.3524   39.4490  125.4418 C   0  0  0  0  0  0  0  0  0  0  0  0
   12.7084   38.3963  126.3753 C   0  0  0  0  0  0  0  0  0  0  0  0
   12.9959   37.5563  127.1462 N   0  0  0  0  0  0  0  0  0  0  0  0
    9.1436   48.4518  130.5899 C   0  0  0  0  0  0  0  0  0  0  0  0
    8.3545   49.4998  129.3744 S   0  0  0  0  0  0  0  0  0  0  0  0
    6.8918   50.3378  130.0363 C   0  0  0  0  0  0  0  0  0  0  0  0
    6.9442   51.7655  129.6865 N   0  0  0  0  0  0  0  0  0  0  0  0
    5.6527   49.7805  129.5677 N   0  0  0  0  0  0  0  0  0  0  0  0
    5.9706   52.1018  129.4254 H   0  0  0  0  0  0  0  0  0  0  0  0
    7.4931   51.8814  128.7816 H   0  0  0  0  0  0  0  0  0  0  0  0
    5.8628   49.0301  128.8736 H   0  0  0  0  0  0  0  0  0  0  0  0
    5.1689   49.3339  130.3820 H   0  0  0  0  0  0  0  0  0  0  0  0
 32 33  1  0  0  0
 33 34  1  0  0  0
 34 35  3  0  0  0
 33 26  1  0  0  0
 26 27  2  0  0  0
 27 28  1  0  0  0
 28 29  2  0  0  0
 29 30  1  0  0  0
 30 31  2  0  0  0
 29 20  1  0  0  0
 20 21  2  0  0  0
 21 22  1  0  0  0
 22 23  2  0  0  0
 23 24  1  0  0  0
 24 25  2  0  0  0
 23 18  1  0  0  0
 18 19  2  0  0  0
 18  1  1  0  0  0
  1 36  1  0  0  0
 36 37  1  0  0  0
 37 38  1  0  0  0
 38 39  1  0  0  0
 38 40  1  0  0  0
  1  2  1  0  0  0
  2  3  1  0  0  0
  3  4  2  0  0  0
  3  6  1  0  0  0
  6  7  1  0  0  0
  7  8  1  0  0  0
  8  9  1  0  0  0
  9 10  1  0  0  0
 10 11  1  0  0  0
 11 12  1  0  0  0
 12 13  1  0  0  0
 13 14  1  0  0  0
 14 15  1  0  0  0
 15 16  1  0  0  0
 16 17  3  0  0  0
 31 26  1  0  0  0
 25 20  1  0  0  0
 39 41  1  0  0  0
 39 42  1  0  0  0
 40 43  1  0  0  0
 40 44  1  0  0  0
  2  5  1  0  0  0
M  END
> <minimizedAffinity>
12.35159

> <CNNscore>
0.3652636111

> <CNNaffinity>
7.8453917503

> <CNN_VS>
2.8656361103

> <CNNaffinity_variance>
0.3158915639

$$$$
[H]c1c([H])c(-c2c([H])c([H])c(C([H])(C#N)C([H])([H])[H])c([H])c2[H])c([H])c([H])c1C(=O)[C@@]([H])(N([H])C(=O)C([H])([H])C([H])([H])C([H])([H])C([H])([H])C([H])([H])C([H])([H])C([H])([H])C([H])([H])C([H])([H])C([H])([H])C#N)C([H])([H])SC([H])(N([H])[H])N([H])[H]


 44 45  0  0  0  0  0  0  0  0999 V2000
    7.7598   46.1074  130.7766 C   0  0  0  0  0  0  0  0  0  0  0  0
    8.2882   45.3008  129.6819 N   0  0  0  0  0  0  0  0  0  0  0  0
    8.5187   43.9272  129.8826 C   0  0  0  0  0  0  0  0  0  0  0  0
    8.2594   43.4336  131.0119 O   0  0  0  0  0  0  0  0  0  0  0  0
    8.4822   45.7522  128.7813 H   0  0  0  0  0  0  0  0  0  0  0  0
    9.0531   43.0560  128.8067 C   0  0  0  0  0  0  0  0  0  0  0  0
    9.9389   43.7477  127.8288 C   0  0  0  0  0  0  0  0  0  0  0  0
   11.3831   43.8118  128.1848 C   0  0  0  0  0  0  0  0  0  0  0  0
   11.6303   44.4286  129.5384 C   0  0  0  0  0  0  0  0  0  0  0  0
   11.7406   43.4272  130.6476 C   0  0  0  0  0  0  0  0  0  0  0  0
   11.4299   43.9381  132.0127 C   0  0  0  0  0  0  0  0  0  0  0  0
   12.6553   44.4401  132.7670 C   0  0  0  0  0  0  0  0  0  0  0  0
   12.5103   45.8773  133.1570 C   0  0  0  0  0  0  0  0  0  0  0  0
   12.7983   46.1456  134.5942 C   0  0  0  0  0  0  0  0  0  0  0  0
   14.1686   46.7142  134.7703 C   0  0  0  0  0  0  0  0  0  0  0  0
   14.0505   47.8148  135.7381 C   0  0  0  0  0  0  0  0  0  0  0  0
   13.9409   48.6773  136.5032 N   0  0  0  0  0  0  0  0  0  0  0  0
    6.5640   46.8282  130.2494 C   0  0  0  0  0  0  0  0  0  0  0  0
    5.4252   46.3088  130.3027 O   0  0  0  0  0  0  0  0  0  0  0  0
    7.0071   50.7109  128.4741 C   0  0  0  0  0  0  0  0  0  0  0  0
    8.0970   50.0181  128.9563 C   0  0  0  0  0  0  0  0  0  0  0  0
    7.9692   48.7656  129.5411 C   0  0  0  0  0  0  0  0  0  0  0  0
    6.7374   48.1588  129.6651 C   0  0  0  0  0  0  0  0  0  0  0  0
    5.6398   48.8631  129.1772 C   0  0  0  0  0  0  0  0  0  0  0  0
    5.7763   50.1126  128.5946 C   0  0  0  0  0  0  0  0  0  0  0  0
    7.5480   54.6016  126.7543 C   0  0  0  0  0  0  0  0  0  0  0  0
    7.0856   54.4439  128.0636 C   0  0  0  0  0  0  0  0  0  0  0  0
    6.9189   53.1735  128.5742 C   0  0  0  0  0  0  0  0  0  0  0  0
    7.1816   52.0244  127.8664 C   0  0  0  0  0  0  0  0  0  0  0  0
    7.6376   52.1811  126.5714 C   0  0  0  0  0  0  0  0  0  0  0  0
    7.8095   53.4515  126.0486 C   0  0  0  0  0  0  0  0  0  0  0  0
    8.8635   55.9220  125.1235 C   0  0  0  0  0  0  0  0  0  0  0  0
    7.7343   55.9482  126.1503 C   0  0  0  0  0  0  0  0  0  0  0  0
    6.5050   56.3604  125.4982 C   0  0  0  0  0  0  0  0  0  0  0  0
    5.5145   56.7128  124.9716 N   0  0  0  0  0  0  0  0  0  0  0  0
    8.7792   47.2000  131.1046 C   0  0  0  0  0  0  0  0  0  0  0  0
    9.1426   47.3321  132.8508 S   0  0  0  0  0  0  0  0  0  0  0  0
   10.3182   48.6625  133.2087 C   0  0  0  0  0  0  0  0  0  0  0  0
    9.7221   49.9559  132.8409 N   0  0  0  0  0  0  0  0  0  0  0  0
   10.7313   48.7054  134.5845 N   0  0  0  0  0  0  0  0  0  0  0  0
    9.9797   50.6844  133.5703 H   0  0  0  0  0  0  0  0  0  0  0  0
    8.6631   49.8875  132.9279 H   0  0  0  0  0  0  0  0  0  0  0  0
   10.2020   47.9809  135.1172 H   0  0  0  0  0  0  0  0  0  0  0  0
   11.7467   48.4527  134.6268 H   0  0  0  0  0  0  0  0  0  0  0  0
 32 33  1  0  0  0
 33 34  1  0  0  0
 34 35  3  0  0  0
 33 26  1  0  0  0
 26 27  2  0  0  0
 27 28  1  0  0  0
 28 29  2  0  0  0
 29 30  1  0  0  0
 30 31  2  0  0  0
 29 20  1  0  0  0
 20 21  2  0  0  0
 21 22  1  0  0  0
 22 23  2  0  0  0
 23 24  1  0  0  0
 24 25  2  0  0  0
 23 18  1  0  0  0
 18 19  2  0  0  0
 18  1  1  0  0  0
  1 36  1  0  0  0
 36 37  1  0  0  0
 37 38  1  0  0  0
 38 39  1  0  0  0
 38 40  1  0  0  0
  1  2  1  0  0  0
  2  3  1  0  0  0
  3  4  2  0  0  0
  3  6  1  0  0  0
  6  7  1  0  0  0
  7  8  1  0  0  0
  8  9  1  0  0  0
  9 10  1  0  0  0
 10 11  1  0  0  0
 11 12  1  0  0  0
 12 13  1  0  0  0
 13 14  1  0  0  0
 14 15  1  0  0  0
 15 16  1  0  0  0
 16 17  3  0  0  0
 31 26  1  0  0  0
 25 20  1  0  0  0
 39 41  1  0  0  0
 39 42  1  0  0  0
 40 43  1  0  0  0
 40 44  1  0  0  0
  2  5  1  0  0  0
M  END
> <minimizedAffinity>
6.60855

> <CNNscore>
0.3452302814

> <CNNaffinity>
7.2959494591

> <CNN_VS>
2.5187826157

> <CNNaffinity_variance>
0.6578497887

$$$$
[H]c1c([H])c(-c2c([H])c([H])c(C([H])(C#N)C([H])([H])[H])c([H])c2[H])c([H])c([H])c1C(=O)[C@@]([H])(N([H])C(=O)C([H])([H])C([H])([H])C([H])([H])C([H])([H])C([H])([H])C([H])([H])C([H])([H])C([H])([H])C([H])([H])C([H])([H])C#N)C([H])([H])SC([H])(N([H])[H])N([H])[H]


 44 45  0  0  0  0  0  0  0  0999 V2000
    8.4258   46.3918  131.4332 C   0  0  0  0  0  0  0  0  0  0  0  0
    9.0123   45.3192  130.6372 N   0  0  0  0  0  0  0  0  0  0  0  0
    9.0677   44.0159  131.1651 C   0  0  0  0  0  0  0  0  0  0  0  0
    8.6050   43.8156  132.3193 O   0  0  0  0  0  0  0  0  0  0  0  0
    9.3747   45.5360  129.7022 H   0  0  0  0  0  0  0  0  0  0  0  0
    9.6507   42.8846  130.4022 C   0  0  0  0  0  0  0  0  0  0  0  0
    9.2134   42.8022  128.9805 C   0  0  0  0  0  0  0  0  0  0  0  0
   10.1488   43.3745  127.9734 C   0  0  0  0  0  0  0  0  0  0  0  0
   11.4369   43.8711  128.5799 C   0  0  0  0  0  0  0  0  0  0  0  0
   12.5815   43.9168  127.6140 C   0  0  0  0  0  0  0  0  0  0  0  0
   12.3767   43.1812  126.3341 C   0  0  0  0  0  0  0  0  0  0  0  0
   13.4206   42.1000  126.0810 C   0  0  0  0  0  0  0  0  0  0  0  0
   12.7847   40.7662  125.8462 C   0  0  0  0  0  0  0  0  0  0  0  0
   13.1854   40.1231  124.5631 C   0  0  0  0  0  0  0  0  0  0  0  0
   13.8000   38.7826  124.8032 C   0  0  0  0  0  0  0  0  0  0  0  0
   13.2154   38.2644  126.0489 C   0  0  0  0  0  0  0  0  0  0  0  0
   12.7407   37.8513  127.0212 N   0  0  0  0  0  0  0  0  0  0  0  0
    7.2053   46.8544  130.7097 C   0  0  0  0  0  0  0  0  0  0  0  0
    6.1608   46.1628  130.7038 O   0  0  0  0  0  0  0  0  0  0  0  0
    7.2565   50.6453  128.6972 C   0  0  0  0  0  0  0  0  0  0  0  0
    7.2631   49.4619  127.9902 C   0  0  0  0  0  0  0  0  0  0  0  0
    7.2558   48.2281  128.6263 C   0  0  0  0  0  0  0  0  0  0  0  0
    7.2419   48.1349  130.0018 C   0  0  0  0  0  0  0  0  0  0  0  0
    7.2360   49.3331  130.7112 C   0  0  0  0  0  0  0  0  0  0  0  0
    7.2431   50.5603  130.0683 C   0  0  0  0  0  0  0  0  0  0  0  0
    7.2462   54.3658  126.5652 C   0  0  0  0  0  0  0  0  0  0  0  0
    7.5199   53.1582  125.9175 C   0  0  0  0  0  0  0  0  0  0  0  0
    7.5201   51.9854  126.6438 C   0  0  0  0  0  0  0  0  0  0  0  0
    7.2646   51.9218  127.9933 C   0  0  0  0  0  0  0  0  0  0  0  0
    6.9953   53.1165  128.6332 C   0  0  0  0  0  0  0  0  0  0  0  0
    6.9915   54.2997  127.9143 C   0  0  0  0  0  0  0  0  0  0  0  0
    6.2592   56.6354  126.4716 C   0  0  0  0  0  0  0  0  0  0  0  0
    7.2446   55.6604  125.8324 C   0  0  0  0  0  0  0  0  0  0  0  0
    8.5762   56.2367  125.8653 C   0  0  0  0  0  0  0  0  0  0  0  0
    9.6617   56.6872  125.9001 N   0  0  0  0  0  0  0  0  0  0  0  0
    9.3843   47.5842  131.4142 C   0  0  0  0  0  0  0  0  0  0  0  0
   10.2009   47.8650  132.9802 S   0  0  0  0  0  0  0  0  0  0  0  0
    9.8627   46.5483  134.1769 C   0  0  0  0  0  0  0  0  0  0  0  0
   10.8789   45.4932  134.0455 N   0  0  0  0  0  0  0  0  0  0  0  0
    9.8300   47.0077  135.5382 N   0  0  0  0  0  0  0  0  0  0  0  0
   11.1460   45.1370  135.0104 H   0  0  0  0  0  0  0  0  0  0  0  0
   11.7833   45.9249  133.6859 H   0  0  0  0  0  0  0  0  0  0  0  0
   10.0799   48.0207  135.5573 H   0  0  0  0  0  0  0  0  0  0  0  0
    8.8475   46.9159  135.8886 H   0  0  0  0  0  0  0  0  0  0  0  0
 32 33  1  0  0  0
 33 34  1  0  0  0
 34 35  3  0  0  0
 33 26  1  0  0  0
 26 27  2  0  0  0
 27 28  1  0  0  0
 28 29  2  0  0  0
 29 30  1  0  0  0
 30 31  2  0  0  0
 29 20  1  0  0  0
 20 21  2  0  0  0
 21 22  1  0  0  0
 22 23  2  0  0  0
 23 24  1  0  0  0
 24 25  2  0  0  0
 23 18  1  0  0  0
 18 19  2  0  0  0
 18  1  1  0  0  0
  1 36  1  0  0  0
 36 37  1  0  0  0
 37 38  1  0  0  0
 38 39  1  0  0  0
 38 40  1  0  0  0
  1  2  1  0  0  0
  2  3  1  0  0  0
  3  4  2  0  0  0
  3  6  1  0  0  0
  6  7  1  0  0  0
  7  8  1  0  0  0
  8  9  1  0  0  0
  9 10  1  0  0  0
 10 11  1  0  0  0
 11 12  1  0  0  0
 12 13  1  0  0  0
 13 14  1  0  0  0
 14 15  1  0  0  0
 15 16  1  0  0  0
 16 17  3  0  0  0
 31 26  1  0  0  0
 25 20  1  0  0  0
 39 41  1  0  0  0
 39 42  1  0  0  0
 40 43  1  0  0  0
 40 44  1  0  0  0
  2  5  1  0  0  0
M  END
> <minimizedAffinity>
12.62953

> <CNNscore>
0.2803214192

> <CNNaffinity>
6.9356856346

> <CNN_VS>
1.9442212582

> <CNNaffinity_variance>
0.1791703999

$$$$
[H]c1c([H])c(-c2c([H])c([H])c(C([H])(C#N)C([H])([H])[H])c([H])c2[H])c([H])c([H])c1C(=O)[C@@]([H])(N([H])C(=O)C([H])([H])C([H])([H])C([H])([H])C([H])([H])C([H])([H])C([H])([H])C([H])([H])C([H])([H])C([H])([H])C([H])([H])C#N)C([H])([H])SC([H])(N([H])[H])N([H])[H]


 44 45  0  0  0  0  0  0  0  0999 V2000
    8.3021   46.6440  131.3507 C   0  0  0  0  0  0  0  0  0  0  0  0
    9.1395   45.7329  130.5783 N   0  0  0  0  0  0  0  0  0  0  0  0
    9.3260   44.4131  131.0294 C   0  0  0  0  0  0  0  0  0  0  0  0
    8.7587   44.0576  132.0962 O   0  0  0  0  0  0  0  0  0  0  0  0
    9.5786   46.0730  129.7157 H   0  0  0  0  0  0  0  0  0  0  0  0
   10.1649   43.4410  130.2856 C   0  0  0  0  0  0  0  0  0  0  0  0
    9.9277   43.4120  128.8152 C   0  0  0  0  0  0  0  0  0  0  0  0
   10.7482   44.3503  128.0010 C   0  0  0  0  0  0  0  0  0  0  0  0
   11.8129   45.0530  128.8050 C   0  0  0  0  0  0  0  0  0  0  0  0
   12.9381   44.1591  129.2294 C   0  0  0  0  0  0  0  0  0  0  0  0
   14.1454   44.8497  129.7646 C   0  0  0  0  0  0  0  0  0  0  0  0
   15.4002   44.6114  128.9330 C   0  0  0  0  0  0  0  0  0  0  0  0
   15.6272   45.7171  127.9510 C   0  0  0  0  0  0  0  0  0  0  0  0
   16.6710   46.6940  128.3714 C   0  0  0  0  0  0  0  0  0  0  0  0
   17.5637   47.0514  127.2279 C   0  0  0  0  0  0  0  0  0  0  0  0
   17.8674   48.4841  127.3579 C   0  0  0  0  0  0  0  0  0  0  0  0
   18.1044   49.6115  127.4776 N   0  0  0  0  0  0  0  0  0  0  0  0
    7.1675   47.0470  130.4689 C   0  0  0  0  0  0  0  0  0  0  0  0
    6.1773   46.2960  130.3119 O   0  0  0  0  0  0  0  0  0  0  0  0
    7.2699   50.8690  128.5179 C   0  0  0  0  0  0  0  0  0  0  0  0
    7.4186   49.6991  127.8040 C   0  0  0  0  0  0  0  0  0  0  0  0
    7.3968   48.4559  128.4214 C   0  0  0  0  0  0  0  0  0  0  0  0
    7.2246   48.3394  129.7843 C   0  0  0  0  0  0  0  0  0  0  0  0
    7.0757   49.5240  130.5008 C   0  0  0  0  0  0  0  0  0  0  0  0
    7.0984   50.7606  129.8767 C   0  0  0  0  0  0  0  0  0  0  0  0
    7.3323   54.6190  126.4394 C   0  0  0  0  0  0  0  0  0  0  0  0
    7.7899   53.4454  125.8344 C   0  0  0  0  0  0  0  0  0  0  0  0
    7.7587   52.2622  126.5426 C   0  0  0  0  0  0  0  0  0  0  0  0
    7.2984   52.1559  127.8338 C   0  0  0  0  0  0  0  0  0  0  0  0
    6.8472   53.3170  128.4318 C   0  0  0  0  0  0  0  0  0  0  0  0
    6.8730   54.5104  127.7302 C   0  0  0  0  0  0  0  0  0  0  0  0
    8.0856   55.7913  124.3918 C   0  0  0  0  0  0  0  0  0  0  0  0
    7.3545   55.9239  125.7253 C   0  0  0  0  0  0  0  0  0  0  0  0
    5.9936   56.3657  125.4822 C   0  0  0  0  0  0  0  0  0  0  0  0
    4.8845   56.7068  125.2921 N   0  0  0  0  0  0  0  0  0  0  0  0
    9.0944   47.9281  131.6037 C   0  0  0  0  0  0  0  0  0  0  0  0
    9.6977   48.0726  133.2811 S   0  0  0  0  0  0  0  0  0  0  0  0
    9.7107   46.4812  134.1456 C   0  0  0  0  0  0  0  0  0  0  0  0
   10.9809   45.7889  133.8795 N   0  0  0  0  0  0  0  0  0  0  0  0
    9.5246   46.6006  135.5656 N   0  0  0  0  0  0  0  0  0  0  0  0
   11.3158   45.3105  134.7673 H   0  0  0  0  0  0  0  0  0  0  0  0
   11.7385   46.5131  133.6921 H   0  0  0  0  0  0  0  0  0  0  0  0
    9.4851   47.6130  135.8156 H   0  0  0  0  0  0  0  0  0  0  0  0
    8.5984   46.1768  135.8086 H   0  0  0  0  0  0  0  0  0  0  0  0
 32 33  1  0  0  0
 33 34  1  0  0  0
 34 35  3  0  0  0
 33 26  1  0  0  0
 26 27  2  0  0  0
 27 28  1  0  0  0
 28 29  2  0  0  0
 29 30  1  0  0  0
 30 31  2  0  0  0
 29 20  1  0  0  0
 20 21  2  0  0  0
 21 22  1  0  0  0
 22 23  2  0  0  0
 23 24  1  0  0  0
 24 25  2  0  0  0
 23 18  1  0  0  0
 18 19  2  0  0  0
 18  1  1  0  0  0
  1 36  1  0  0  0
 36 37  1  0  0  0
 37 38  1  0  0  0
 38 39  1  0  0  0
 38 40  1  0  0  0
  1  2  1  0  0  0
  2  3  1  0  0  0
  3  4  2  0  0  0
  3  6  1  0  0  0
  6  7  1  0  0  0
  7  8  1  0  0  0
  8  9  1  0  0  0
  9 10  1  0  0  0
 10 11  1  0  0  0
 11 12  1  0  0  0
 12 13  1  0  0  0
 13 14  1  0  0  0
 14 15  1  0  0  0
 15 16  1  0  0  0
 16 17  3  0  0  0
 31 26  1  0  0  0
 25 20  1  0  0  0
 39 41  1  0  0  0
 39 42  1  0  0  0
 40 43  1  0  0  0
 40 44  1  0  0  0
  2  5  1  0  0  0
M  END
> <minimizedAffinity>
10.31681

> <CNNscore>
0.2540954947

> <CNNaffinity>
7.0008149147

> <CNN_VS>
1.7788754702

> <CNNaffinity_variance>
0.2316596806

$$$$
[H]c1c([H])c(-c2c([H])c([H])c(C([H])(C#N)C([H])([H])[H])c([H])c2[H])c([H])c([H])c1C(=O)[C@@]([H])(N([H])C(=O)C([H])([H])C([H])([H])C([H])([H])C([H])([H])C([H])([H])C([H])([H])C([H])([H])C([H])([H])C([H])([H])C([H])([H])C#N)C([H])([H])SC([H])(N([H])[H])N([H])[H]


 44 45  0  0  0  0  0  0  0  0999 V2000
    6.7245   51.2461  129.1342 C   0  0  0  0  0  0  0  0  0  0  0  0
    8.0641   50.8033  129.5049 N   0  0  0  0  0  0  0  0  0  0  0  0
    8.3047   50.3460  130.8138 C   0  0  0  0  0  0  0  0  0  0  0  0
    7.3466   50.3341  131.6312 O   0  0  0  0  0  0  0  0  0  0  0  0
    8.8095   50.8329  128.8006 H   0  0  0  0  0  0  0  0  0  0  0  0
    9.6454   49.8817  131.2485 C   0  0  0  0  0  0  0  0  0  0  0  0
    9.6833   49.2776  132.6097 C   0  0  0  0  0  0  0  0  0  0  0  0
    9.1719   47.8838  132.7220 C   0  0  0  0  0  0  0  0  0  0  0  0
    8.8219   47.4961  134.1366 C   0  0  0  0  0  0  0  0  0  0  0  0
    8.8271   46.0170  134.3766 C   0  0  0  0  0  0  0  0  0  0  0  0
   10.0173   45.4835  135.0976 C   0  0  0  0  0  0  0  0  0  0  0  0
   10.8997   44.5892  134.2350 C   0  0  0  0  0  0  0  0  0  0  0  0
   11.9513   45.3785  133.5210 C   0  0  0  0  0  0  0  0  0  0  0  0
   11.7254   45.4969  132.0529 C   0  0  0  0  0  0  0  0  0  0  0  0
   12.7171   44.6809  131.2894 C   0  0  0  0  0  0  0  0  0  0  0  0
   12.3110   44.7311  129.8772 C   0  0  0  0  0  0  0  0  0  0  0  0
   11.9862   44.7539  128.7657 N   0  0  0  0  0  0  0  0  0  0  0  0
    5.8988   50.0188  128.9357 C   0  0  0  0  0  0  0  0  0  0  0  0
    4.7239   50.0968  128.5081 O   0  0  0  0  0  0  0  0  0  0  0  0
    7.5707   46.1943  129.9368 C   0  0  0  0  0  0  0  0  0  0  0  0
    8.2559   47.0861  129.1396 C   0  0  0  0  0  0  0  0  0  0  0  0
    7.7251   48.3230  128.7996 C   0  0  0  0  0  0  0  0  0  0  0  0
    6.4812   48.7129  129.2483 C   0  0  0  0  0  0  0  0  0  0  0  0
    5.7929   47.8082  130.0524 C   0  0  0  0  0  0  0  0  0  0  0  0
    6.3301   46.5759  130.3872 C   0  0  0  0  0  0  0  0  0  0  0  0
    9.3635   42.4124  130.8695 C   0  0  0  0  0  0  0  0  0  0  0  0
    9.2841   42.8736  129.5528 C   0  0  0  0  0  0  0  0  0  0  0  0
    8.6922   44.0931  129.2973 C   0  0  0  0  0  0  0  0  0  0  0  0
    8.1612   44.9045  130.2721 C   0  0  0  0  0  0  0  0  0  0  0  0
    8.2390   44.4470  131.5737 C   0  0  0  0  0  0  0  0  0  0  0  0
    8.8318   43.2250  131.8422 C   0  0  0  0  0  0  0  0  0  0  0  0
   10.2795   40.3138  129.9256 C   0  0  0  0  0  0  0  0  0  0  0  0
    9.9808   41.0997  131.1997 C   0  0  0  0  0  0  0  0  0  0  0  0
   11.2170   41.3161  131.9285 C   0  0  0  0  0  0  0  0  0  0  0  0
   12.2252   41.5021  132.5043 N   0  0  0  0  0  0  0  0  0  0  0  0
    6.8009   51.9097  127.7578 C   0  0  0  0  0  0  0  0  0  0  0  0
    7.2038   53.6507  127.8293 S   0  0  0  0  0  0  0  0  0  0  0  0
    7.4394   54.3691  126.1836 C   0  0  0  0  0  0  0  0  0  0  0  0
    6.2398   55.1313  125.8048 N   0  0  0  0  0  0  0  0  0  0  0  0
    8.5917   55.2231  126.0923 N   0  0  0  0  0  0  0  0  0  0  0  0
    6.5303   56.0222  125.3037 H   0  0  0  0  0  0  0  0  0  0  0  0
    5.7644   55.4915  126.6868 H   0  0  0  0  0  0  0  0  0  0  0  0
    9.0260   55.3039  127.0378 H   0  0  0  0  0  0  0  0  0  0  0  0
    9.2883   54.7623  125.4608 H   0  0  0  0  0  0  0  0  0  0  0  0
 32 33  1  0  0  0
 33 34  1  0  0  0
 34 35  3  0  0  0
 33 26  1  0  0  0
 26 27  2  0  0  0
 27 28  1  0  0  0
 28 29  2  0  0  0
 29 30  1  0  0  0
 30 31  2  0  0  0
 29 20  1  0  0  0
 20 21  2  0  0  0
 21 22  1  0  0  0
 22 23  2  0  0  0
 23 24  1  0  0  0
 24 25  2  0  0  0
 23 18  1  0  0  0
 18 19  2  0  0  0
 18  1  1  0  0  0
  1 36  1  0  0  0
 36 37  1  0  0  0
 37 38  1  0  0  0
 38 39  1  0  0  0
 38 40  1  0  0  0
  1  2  1  0  0  0
  2  3  1  0  0  0
  3  4  2  0  0  0
  3  6  1  0  0  0
  6  7  1  0  0  0
  7  8  1  0  0  0
  8  9  1  0  0  0
  9 10  1  0  0  0
 10 11  1  0  0  0
 11 12  1  0  0  0
 12 13  1  0  0  0
 13 14  1  0  0  0
 14 15  1  0  0  0
 15 16  1  0  0  0
 16 17  3  0  0  0
 31 26  1  0  0  0
 25 20  1  0  0  0
 39 41  1  0  0  0
 39 42  1  0  0  0
 40 43  1  0  0  0
 40 44  1  0  0  0
  2  5  1  0  0  0
M  END
> <minimizedAffinity>
1.78062

> <CNNscore>
0.2131060958

> <CNNaffinity>
7.6226339340

> <CNN_VS>
1.6244297028

> <CNNaffinity_variance>
0.5063267946

$$$$
[H]c1c([H])c(-c2c([H])c([H])c(C([H])(C#N)C([H])([H])[H])c([H])c2[H])c([H])c([H])c1C(=O)[C@@]([H])(N([H])C(=O)C([H])([H])C([H])([H])C([H])([H])C([H])([H])C([H])([H])C([H])([H])C([H])([H])C([H])([H])C([H])([H])C([H])([H])C#N)C([H])([H])SC([H])(N([H])[H])N([H])[H]


 44 45  0  0  0  0  0  0  0  0999 V2000
    8.2222   47.3392  131.2209 C   0  0  0  0  0  0  0  0  0  0  0  0
    9.0798   46.2931  131.7671 N   0  0  0  0  0  0  0  0  0  0  0  0
    8.5011   45.2204  132.4704 C   0  0  0  0  0  0  0  0  0  0  0  0
    7.2493   45.1981  132.6075 O   0  0  0  0  0  0  0  0  0  0  0  0
   10.0940   46.3589  131.6269 H   0  0  0  0  0  0  0  0  0  0  0  0
    9.3217   44.1267  133.0470 C   0  0  0  0  0  0  0  0  0  0  0  0
    9.6603   43.0339  132.0929 C   0  0  0  0  0  0  0  0  0  0  0  0
   10.7372   43.3335  131.1095 C   0  0  0  0  0  0  0  0  0  0  0  0
   12.1103   43.3710  131.7315 C   0  0  0  0  0  0  0  0  0  0  0  0
   12.1470   42.8756  133.1452 C   0  0  0  0  0  0  0  0  0  0  0  0
   12.5630   43.8750  134.1695 C   0  0  0  0  0  0  0  0  0  0  0  0
   12.8375   45.2585  133.5923 C   0  0  0  0  0  0  0  0  0  0  0  0
   11.7696   46.2348  133.9728 C   0  0  0  0  0  0  0  0  0  0  0  0
   10.7582   45.6857  134.9194 C   0  0  0  0  0  0  0  0  0  0  0  0
    9.7663   46.7318  135.3119 C   0  0  0  0  0  0  0  0  0  0  0  0
    9.9975   47.8874  134.4326 C   0  0  0  0  0  0  0  0  0  0  0  0
   10.1797   48.7869  133.7262 N   0  0  0  0  0  0  0  0  0  0  0  0
    7.6449   46.8106  129.9502 C   0  0  0  0  0  0  0  0  0  0  0  0
    6.5834   47.2825  129.4814 O   0  0  0  0  0  0  0  0  0  0  0  0
    9.6576   43.5757  127.9733 C   0  0  0  0  0  0  0  0  0  0  0  0
   10.1349   44.8667  127.8962 C   0  0  0  0  0  0  0  0  0  0  0  0
    9.4906   45.9249  128.5223 C   0  0  0  0  0  0  0  0  0  0  0  0
    8.3379   45.7268  129.2522 C   0  0  0  0  0  0  0  0  0  0  0  0
    7.8595   44.4212  129.3263 C   0  0  0  0  0  0  0  0  0  0  0  0
    8.5090   43.3707  128.6986 C   0  0  0  0  0  0  0  0  0  0  0  0
   11.7980   40.4121  126.0247 C   0  0  0  0  0  0  0  0  0  0  0  0
   12.2970   41.7170  126.0527 C   0  0  0  0  0  0  0  0  0  0  0  0
   11.5716   42.7057  126.6843 C   0  0  0  0  0  0  0  0  0  0  0  0
   10.3622   42.4905  127.3019 C   0  0  0  0  0  0  0  0  0  0  0  0
    9.8688   41.2001  127.2726 C   0  0  0  0  0  0  0  0  0  0  0  0
   10.5887   40.1994  126.6422 C   0  0  0  0  0  0  0  0  0  0  0  0
   13.8238   39.8347  124.7220 C   0  0  0  0  0  0  0  0  0  0  0  0
   12.5336   39.3107  125.3473 C   0  0  0  0  0  0  0  0  0  0  0  0
   12.8566   38.2779  126.3145 C   0  0  0  0  0  0  0  0  0  0  0  0
   13.1201   37.4549  127.1118 N   0  0  0  0  0  0  0  0  0  0  0  0
    9.1057   48.5171  130.8052 C   0  0  0  0  0  0  0  0  0  0  0  0
    8.3860   49.5251  129.5150 S   0  0  0  0  0  0  0  0  0  0  0  0
    6.9393   50.4491  130.0921 C   0  0  0  0  0  0  0  0  0  0  0  0
    7.0281   51.8411  129.6251 N   0  0  0  0  0  0  0  0  0  0  0  0
    5.6904   49.8835  129.6609 N   0  0  0  0  0  0  0  0  0  0  0  0
    6.0645   52.1769  129.3285 H   0  0  0  0  0  0  0  0  0  0  0  0
    7.5856   51.8683  128.7185 H   0  0  0  0  0  0  0  0  0  0  0  0
    5.8872   49.0732  129.0335 H   0  0  0  0  0  0  0  0  0  0  0  0
    5.1907   49.5179  130.5053 H   0  0  0  0  0  0  0  0  0  0  0  0
 32 33  1  0  0  0
 33 34  1  0  0  0
 34 35  3  0  0  0
 33 26  1  0  0  0
 26 27  2  0  0  0
 27 28  1  0  0  0
 28 29  2  0  0  0
 29 30  1  0  0  0
 30 31  2  0  0  0
 29 20  1  0  0  0
 20 21  2  0  0  0
 21 22  1  0  0  0
 22 23  2  0  0  0
 23 24  1  0  0  0
 24 25  2  0  0  0
 23 18  1  0  0  0
 18 19  2  0  0  0
 18  1  1  0  0  0
  1 36  1  0  0  0
 36 37  1  0  0  0
 37 38  1  0  0  0
 38 39  1  0  0  0
 38 40  1  0  0  0
  1  2  1  0  0  0
  2  3  1  0  0  0
  3  4  2  0  0  0
  3  6  1  0  0  0
  6  7  1  0  0  0
  7  8  1  0  0  0
  8  9  1  0  0  0
  9 10  1  0  0  0
 10 11  1  0  0  0
 11 12  1  0  0  0
 12 13  1  0  0  0
 13 14  1  0  0  0
 14 15  1  0  0  0
 15 16  1  0  0  0
 16 17  3  0  0  0
 31 26  1  0  0  0
 25 20  1  0  0  0
 39 41  1  0  0  0
 39 42  1  0  0  0
 40 43  1  0  0  0
 40 44  1  0  0  0
  2  5  1  0  0  0
M  END
> <minimizedAffinity>
11.58428

> <CNNscore>
0.2084234655

> <CNNaffinity>
7.8040833473

> <CNN_VS>
1.6265541315

> <CNNaffinity_variance>
0.3279064298

$$$$
[H]c1c([H])c(-c2c([H])c([H])c(C([H])(C#N)C([H])([H])[H])c([H])c2[H])c([H])c([H])c1C(=O)[C@@]([H])(N([H])C(=O)C([H])([H])C([H])([H])C([H])([H])C([H])([H])C([H])([H])C([H])([H])C([H])([H])C([H])([H])C([H])([H])C([H])([H])C#N)C([H])([H])SC([H])(N([H])[H])N([H])[H]


 44 45  0  0  0  0  0  0  0  0999 V2000
    8.5269   48.1690  131.3642 C   0  0  0  0  0  0  0  0  0  0  0  0
    9.4960   47.4849  132.2134 N   0  0  0  0  0  0  0  0  0  0  0  0
    9.3564   47.5472  133.6123 C   0  0  0  0  0  0  0  0  0  0  0  0
    8.3903   48.1982  134.0908 O   0  0  0  0  0  0  0  0  0  0  0  0
   10.2647   46.9679  131.7726 H   0  0  0  0  0  0  0  0  0  0  0  0
   10.3094   46.8705  134.5266 C   0  0  0  0  0  0  0  0  0  0  0  0
   11.7445   47.1692  134.2612 C   0  0  0  0  0  0  0  0  0  0  0  0
   12.6993   46.0498  134.4890 C   0  0  0  0  0  0  0  0  0  0  0  0
   12.4346   44.8591  133.6025 C   0  0  0  0  0  0  0  0  0  0  0  0
   12.1856   45.2166  132.1689 C   0  0  0  0  0  0  0  0  0  0  0  0
   12.7980   44.3066  131.1600 C   0  0  0  0  0  0  0  0  0  0  0  0
   11.8258   43.2725  130.6050 C   0  0  0  0  0  0  0  0  0  0  0  0
   11.3553   42.3329  131.6701 C   0  0  0  0  0  0  0  0  0  0  0  0
    9.8896   42.3992  131.9302 C   0  0  0  0  0  0  0  0  0  0  0  0
    9.6124   42.7701  133.3507 C   0  0  0  0  0  0  0  0  0  0  0  0
    8.6672   43.8959  133.3189 C   0  0  0  0  0  0  0  0  0  0  0  0
    7.9110   44.7730  133.3026 N   0  0  0  0  0  0  0  0  0  0  0  0
    7.7081   47.1134  130.6991 C   0  0  0  0  0  0  0  0  0  0  0  0
    6.4601   47.1043  130.8079 O   0  0  0  0  0  0  0  0  0  0  0  0
    9.6697   44.0241  128.4559 C   0  0  0  0  0  0  0  0  0  0  0  0
   10.1685   45.3088  128.4884 C   0  0  0  0  0  0  0  0  0  0  0  0
    9.5410   46.3209  129.2017 C   0  0  0  0  0  0  0  0  0  0  0  0
    8.3840   46.0810  129.9121 C   0  0  0  0  0  0  0  0  0  0  0  0
    7.8838   44.7820  129.8754 C   0  0  0  0  0  0  0  0  0  0  0  0
    8.5167   43.7777  129.1611 C   0  0  0  0  0  0  0  0  0  0  0  0
   11.6227   40.9483  126.1948 C   0  0  0  0  0  0  0  0  0  0  0  0
   10.4456   40.6928  126.9032 C   0  0  0  0  0  0  0  0  0  0  0  0
    9.8548   41.7100  127.6237 C   0  0  0  0  0  0  0  0  0  0  0  0
   10.3572   42.9879  127.6953 C   0  0  0  0  0  0  0  0  0  0  0  0
   11.5219   43.2394  126.9956 C   0  0  0  0  0  0  0  0  0  0  0  0
   12.1232   42.2263  126.2682 C   0  0  0  0  0  0  0  0  0  0  0  0
   13.6266   40.4038  124.8450 C   0  0  0  0  0  0  0  0  0  0  0  0
   12.3074   39.8850  125.4115 C   0  0  0  0  0  0  0  0  0  0  0  0
   12.5715   38.7453  126.2703 C   0  0  0  0  0  0  0  0  0  0  0  0
   12.7927   37.8124  126.9509 N   0  0  0  0  0  0  0  0  0  0  0  0
    9.2858   48.8656  130.2331 C   0  0  0  0  0  0  0  0  0  0  0  0
    8.2217   49.4651  128.9267 S   0  0  0  0  0  0  0  0  0  0  0  0
    6.9445   50.5911  129.5437 C   0  0  0  0  0  0  0  0  0  0  0  0
    6.8810   51.7806  128.6809 N   0  0  0  0  0  0  0  0  0  0  0  0
    5.6410   49.9905  129.6192 N   0  0  0  0  0  0  0  0  0  0  0  0
    5.8663   52.0656  128.5453 H   0  0  0  0  0  0  0  0  0  0  0  0
    7.1928   51.5141  127.6984 H   0  0  0  0  0  0  0  0  0  0  0  0
    5.6932   49.0237  129.2299 H   0  0  0  0  0  0  0  0  0  0  0  0
    5.3774   49.9126  130.6297 H   0  0  0  0  0  0  0  0  0  0  0  0
 32 33  1  0  0  0
 33 34  1  0  0  0
 34 35  3  0  0  0
 33 26  1  0  0  0
 26 27  2  0  0  0
 27 28  1  0  0  0
 28 29  2  0  0  0
 29 30  1  0  0  0
 30 31  2  0  0  0
 29 20  1  0  0  0
 20 21  2  0  0  0
 21 22  1  0  0  0
 22 23  2  0  0  0
 23 24  1  0  0  0
 24 25  2  0  0  0
 23 18  1  0  0  0
 18 19  2  0  0  0
 18  1  1  0  0  0
  1 36  1  0  0  0
 36 37  1  0  0  0
 37 38  1  0  0  0
 38 39  1  0  0  0
 38 40  1  0  0  0
  1  2  1  0  0  0
  2  3  1  0  0  0
  3  4  2  0  0  0
  3  6  1  0  0  0
  6  7  1  0  0  0
  7  8  1  0  0  0
  8  9  1  0  0  0
  9 10  1  0  0  0
 10 11  1  0  0  0
 11 12  1  0  0  0
 12 13  1  0  0  0
 13 14  1  0  0  0
 14 15  1  0  0  0
 15 16  1  0  0  0
 16 17  3  0  0  0
 31 26  1  0  0  0
 25 20  1  0  0  0
 39 41  1  0  0  0
 39 42  1  0  0  0
 40 43  1  0  0  0
 40 44  1  0  0  0
  2  5  1  0  0  0
M  END
> <minimizedAffinity>
10.01715

> <CNNscore>
0.2071538717

> <CNNaffinity>
7.6912775040

> <CNN_VS>
1.5932779312

> <CNNaffinity_variance>
0.3060750365

$$$$
[H]c1c([H])c(-c2c([H])c([H])c(C([H])(C#N)C([H])([H])[H])c([H])c2[H])c([H])c([H])c1C(=O)[C@@]([H])(N([H])C(=O)C([H])([H])C([H])([H])C([H])([H])C([H])([H])C([H])([H])C([H])([H])C([H])([H])C([H])([H])C([H])([H])C([H])([H])C#N)C([H])([H])SC([H])(N([H])[H])N([H])[H]


 44 45  0  0  0  0  0  0  0  0999 V2000
   12.5277   43.6894  133.8493 C   0  0  0  0  0  0  0  0  0  0  0  0
   11.1688   43.3723  134.2748 N   0  0  0  0  0  0  0  0  0  0  0  0
   10.3555   42.5699  133.4533 C   0  0  0  0  0  0  0  0  0  0  0  0
   10.8313   42.1476  132.3664 O   0  0  0  0  0  0  0  0  0  0  0  0
   10.8300   43.7416  135.1700 H   0  0  0  0  0  0  0  0  0  0  0  0
    8.9664   42.2127  133.8338 C   0  0  0  0  0  0  0  0  0  0  0  0
    7.9500   43.2587  133.5306 C   0  0  0  0  0  0  0  0  0  0  0  0
    8.4599   44.6525  133.4125 C   0  0  0  0  0  0  0  0  0  0  0  0
    7.4990   45.5742  132.7047 C   0  0  0  0  0  0  0  0  0  0  0  0
    7.2152   45.1787  131.2876 C   0  0  0  0  0  0  0  0  0  0  0  0
    8.3046   44.4354  130.5935 C   0  0  0  0  0  0  0  0  0  0  0  0
    8.0663   42.9317  130.5254 C   0  0  0  0  0  0  0  0  0  0  0  0
    9.0521   42.2591  129.6229 C   0  0  0  0  0  0  0  0  0  0  0  0
   10.2485   43.0900  129.3086 C   0  0  0  0  0  0  0  0  0  0  0  0
   10.2574   43.4965  127.8709 C   0  0  0  0  0  0  0  0  0  0  0  0
   10.4091   44.9587  127.8439 C   0  0  0  0  0  0  0  0  0  0  0  0
   10.5438   46.1087  127.8142 N   0  0  0  0  0  0  0  0  0  0  0  0
   12.6639   45.1748  133.8960 C   0  0  0  0  0  0  0  0  0  0  0  0
   13.5513   45.7172  134.5943 O   0  0  0  0  0  0  0  0  0  0  0  0
    9.9033   47.5880  131.6645 C   0  0  0  0  0  0  0  0  0  0  0  0
   10.6438   46.5995  131.0522 C   0  0  0  0  0  0  0  0  0  0  0  0
   11.5471   45.8167  131.7581 C   0  0  0  0  0  0  0  0  0  0  0  0
   11.7425   45.9974  133.1109 C   0  0  0  0  0  0  0  0  0  0  0  0
   10.9928   46.9976  133.7244 C   0  0  0  0  0  0  0  0  0  0  0  0
   10.0931   47.7742  133.0124 C   0  0  0  0  0  0  0  0  0  0  0  0
    7.1870   50.0087  129.3954 C   0  0  0  0  0  0  0  0  0  0  0  0
    7.8105   50.4997  130.5455 C   0  0  0  0  0  0  0  0  0  0  0  0
    8.6716   49.6838  131.2495 C   0  0  0  0  0  0  0  0  0  0  0  0
    8.9645   48.3896  130.8893 C   0  0  0  0  0  0  0  0  0  0  0  0
    8.3465   47.9044  129.7526 C   0  0  0  0  0  0  0  0  0  0  0  0
    7.4810   48.7146  129.0375 C   0  0  0  0  0  0  0  0  0  0  0  0
    4.8519   50.8191  129.2386 C   0  0  0  0  0  0  0  0  0  0  0  0
    6.2408   50.8418  128.6057 C   0  0  0  0  0  0  0  0  0  0  0  0
    6.7228   52.2100  128.5601 C   0  0  0  0  0  0  0  0  0  0  0  0
    7.1302   53.3121  128.5163 N   0  0  0  0  0  0  0  0  0  0  0  0
   12.6687   43.3160  132.3724 C   0  0  0  0  0  0  0  0  0  0  0  0
   13.6709   44.4673  131.4405 S   0  0  0  0  0  0  0  0  0  0  0  0
   13.8161   43.9968  129.6976 C   0  0  0  0  0  0  0  0  0  0  0  0
   13.1128   44.9829  128.8632 N   0  0  0  0  0  0  0  0  0  0  0  0
   15.1763   43.8802  129.2485 N   0  0  0  0  0  0  0  0  0  0  0  0
   13.6762   45.1660  127.9810 H   0  0  0  0  0  0  0  0  0  0  0  0
   13.1212   45.9256  129.3579 H   0  0  0  0  0  0  0  0  0  0  0  0
   15.8125   44.1628  130.0259 H   0  0  0  0  0  0  0  0  0  0  0  0
   15.3628   42.8720  129.0356 H   0  0  0  0  0  0  0  0  0  0  0  0
 32 33  1  0  0  0
 33 34  1  0  0  0
 34 35  3  0  0  0
 33 26  1  0  0  0
 26 27  2  0  0  0
 27 28  1  0  0  0
 28 29  2  0  0  0
 29 30  1  0  0  0
 30 31  2  0  0  0
 29 20  1  0  0  0
 20 21  2  0  0  0
 21 22  1  0  0  0
 22 23  2  0  0  0
 23 24  1  0  0  0
 24 25  2  0  0  0
 23 18  1  0  0  0
 18 19  2  0  0  0
 18  1  1  0  0  0
  1 36  1  0  0  0
 36 37  1  0  0  0
 37 38  1  0  0  0
 38 39  1  0  0  0
 38 40  1  0  0  0
  1  2  1  0  0  0
  2  3  1  0  0  0
  3  4  2  0  0  0
  3  6  1  0  0  0
  6  7  1  0  0  0
  7  8  1  0  0  0
  8  9  1  0  0  0
  9 10  1  0  0  0
 10 11  1  0  0  0
 11 12  1  0  0  0
 12 13  1  0  0  0
 13 14  1  0  0  0
 14 15  1  0  0  0
 15 16  1  0  0  0
 16 17  3  0  0  0
 31 26  1  0  0  0
 25 20  1  0  0  0
 39 41  1  0  0  0
 39 42  1  0  0  0
 40 43  1  0  0  0
 40 44  1  0  0  0
  2  5  1  0  0  0
M  END
> <minimizedAffinity>
1.66028

> <CNNscore>
0.1969335377

> <CNNaffinity>
7.6920270920

> <CNN_VS>
1.5148180723

> <CNNaffinity_variance>
0.2023897171

$$$$
[H]O[C@]([H])(C([H])([H])[H])[C@@]([H])(C(=O)N([H])[C@]([H])(C(=O)C([H])([H])C([H])([H])C([H])([H])C([H])([H])C([H])([H])C([H])([H])C([H])([H])C#N)C([H])([H])C([H])([H])c1c([H])c([H])c([H])c([H])c1[H])N([H])C(=O)OC([H])([H])c1c([H])c([H])c([H])c([H])c1[H]


 41 42  0  0  0  0  0  0  0  0999 V2000
    8.3022   46.7595  133.9976 C   0  0  0  0  0  0  0  0  0  0  0  0
    8.1558   47.1948  135.1483 O   0  0  0  0  0  0  0  0  0  0  0  0
    9.3363   47.3565  133.1795 N   0  0  0  0  0  0  0  0  0  0  0  0
    9.4759   46.7903  132.2520 H   0  0  0  0  0  0  0  0  0  0  0  0
   10.1782   48.4454  133.4214 C   0  0  0  0  0  0  0  0  0  0  0  0
   11.0108   47.9560  134.6385 C   0  0  0  0  0  0  0  0  0  0  0  0
   10.6013   47.9627  135.7225 O   0  0  0  0  0  0  0  0  0  0  0  0
   12.4285   47.5105  134.3167 C   0  0  0  0  0  0  0  0  0  0  0  0
   12.2355   46.1093  133.7447 C   0  0  0  0  0  0  0  0  0  0  0  0
   12.6664   45.8698  132.4025 C   0  0  0  0  0  0  0  0  0  0  0  0
   12.6919   44.6145  131.6462 C   0  0  0  0  0  0  0  0  0  0  0  0
   11.3916   43.8946  132.0613 C   0  0  0  0  0  0  0  0  0  0  0  0
   11.2242   42.6172  131.2959 C   0  0  0  0  0  0  0  0  0  0  0  0
   11.0767   41.4697  132.3202 C   0  0  0  0  0  0  0  0  0  0  0  0
   11.1340   40.1987  131.5894 C   0  0  0  0  0  0  0  0  0  0  0  0
   11.1625   39.1802  131.0009 N   0  0  0  0  0  0  0  0  0  0  0  0
    9.9073   49.8969  133.5693 C   0  0  0  0  0  0  0  0  0  0  0  0
   10.0377   50.4229  132.1384 C   0  0  0  0  0  0  0  0  0  0  0  0
    9.2306   49.8828  131.0952 C   0  0  0  0  0  0  0  0  0  0  0  0
    9.6266   48.8877  130.2226 C   0  0  0  0  0  0  0  0  0  0  0  0
    8.7616   48.3875  129.3189 C   0  0  0  0  0  0  0  0  0  0  0  0
    7.4563   48.8539  129.2493 C   0  0  0  0  0  0  0  0  0  0  0  0
    7.0641   49.8447  130.1168 C   0  0  0  0  0  0  0  0  0  0  0  0
    7.9125   50.3512  131.0141 C   0  0  0  0  0  0  0  0  0  0  0  0
    7.4714   45.6619  133.3838 C   0  0  0  0  0  0  0  0  0  0  0  0
    8.1215   43.4321  132.7400 C   0  0  0  0  0  0  0  0  0  0  0  0
    8.1779   44.3591  133.9693 C   0  0  0  0  0  0  0  0  0  0  0  0
    9.3986   44.6187  134.3705 O   0  0  0  0  0  0  0  0  0  0  0  0
   10.0495   44.0867  133.8420 H   0  0  0  0  0  0  0  0  0  0  0  0
    7.5094   45.4683  132.0171 N   0  0  0  0  0  0  0  0  0  0  0  0
    7.0067   45.6267  130.7488 C   0  0  0  0  0  0  0  0  0  0  0  0
    5.9170   46.2843  130.4552 O   0  0  0  0  0  0  0  0  0  0  0  0
    8.4266   44.6752  131.9088 H   0  0  0  0  0  0  0  0  0  0  0  0
    7.5876   45.1359  129.6286 O   0  0  0  0  0  0  0  0  0  0  0  0
    8.2328   44.6818  128.6467 C   0  0  0  0  0  0  0  0  0  0  0  0
    9.6664   44.4073  128.4429 C   0  0  0  0  0  0  0  0  0  0  0  0
   10.0997   43.3289  127.7323 C   0  0  0  0  0  0  0  0  0  0  0  0
   11.4296   43.1649  127.4873 C   0  0  0  0  0  0  0  0  0  0  0  0
   12.3415   44.1085  127.9720 C   0  0  0  0  0  0  0  0  0  0  0  0
   11.8897   45.2002  128.6968 C   0  0  0  0  0  0  0  0  0  0  0  0
   10.5684   45.3691  128.9439 C   0  0  0  0  0  0  0  0  0  0  0  0
 26 27  1  0  0  0
 27 28  1  0  0  0
 27 25  1  0  0  0
 25 30  1  0  0  0
 30 31  1  0  0  0
 31 32  2  0  0  0
 31 34  1  0  0  0
 34 35  1  0  0  0
 35 36  1  0  0  0
 36 37  2  0  0  0
 37 38  1  0  0  0
 38 39  2  0  0  0
 39 40  1  0  0  0
 40 41  2  0  0  0
 25  1  1  0  0  0
  1  2  2  0  0  0
  1  3  1  0  0  0
  3  5  1  0  0  0
  5 17  1  0  0  0
 17 18  1  0  0  0
 18 19  1  0  0  0
 19 20  2  0  0  0
 20 21  1  0  0  0
 21 22  2  0  0  0
 22 23  1  0  0  0
 23 24  2  0  0  0
  5  6  1  0  0  0
  6  7  2  0  0  0
  6  8  1  0  0  0
  8  9  1  0  0  0
  9 10  1  0  0  0
 10 11  1  0  0  0
 11 12  1  0  0  0
 12 13  1  0  0  0
 13 14  1  0  0  0
 14 15  1  0  0  0
 15 16  3  0  0  0
 41 36  1  0  0  0
 24 19  1  0  0  0
 28 29  1  0  0  0
 30 33  1  0  0  0
  3  4  1  0  0  0
M  END
> <minimizedAffinity>
5.98970

> <CNNscore>
0.3475892842

> <CNNaffinity>
7.1035804749

> <CNN_VS>
2.4691283703

> <CNNaffinity_variance>
0.3094721735

$$$$
[H]O[C@]([H])(C([H])([H])[H])[C@@]([H])(C(=O)N([H])[C@]([H])(C(=O)C([H])([H])C([H])([H])C([H])([H])C([H])([H])C([H])([H])C([H])([H])C([H])([H])C#N)C([H])([H])C([H])([H])c1c([H])c([H])c([H])c([H])c1[H])N([H])C(=O)OC([H])([H])c1c([H])c([H])c([H])c([H])c1[H]


 41 42  0  0  0  0  0  0  0  0999 V2000
    8.5145   49.1893  130.4668 C   0  0  0  0  0  0  0  0  0  0  0  0
    9.5740   49.8313  130.4846 O   0  0  0  0  0  0  0  0  0  0  0  0
    8.4781   47.9321  131.1831 N   0  0  0  0  0  0  0  0  0  0  0  0
    7.4568   47.5382  131.2287 H   0  0  0  0  0  0  0  0  0  0  0  0
    9.4878   47.2274  131.8441 C   0  0  0  0  0  0  0  0  0  0  0  0
    9.5034   47.9048  133.2423 C   0  0  0  0  0  0  0  0  0  0  0  0
   10.0847   48.8835  133.4590 O   0  0  0  0  0  0  0  0  0  0  0  0
    8.7394   47.1652  134.3291 C   0  0  0  0  0  0  0  0  0  0  0  0
    9.3204   45.7557  134.2703 C   0  0  0  0  0  0  0  0  0  0  0  0
   10.6013   45.5350  134.8664 C   0  0  0  0  0  0  0  0  0  0  0  0
   11.8445   45.0665  134.2473 C   0  0  0  0  0  0  0  0  0  0  0  0
   11.5065   43.6476  133.7433 C   0  0  0  0  0  0  0  0  0  0  0  0
   11.9176   43.4805  132.3120 C   0  0  0  0  0  0  0  0  0  0  0  0
   11.0079   42.4013  131.6831 C   0  0  0  0  0  0  0  0  0  0  0  0
    9.6274   42.6722  132.0998 C   0  0  0  0  0  0  0  0  0  0  0  0
    8.5154   42.8893  132.4172 N   0  0  0  0  0  0  0  0  0  0  0  0
   10.8777   46.8835  131.4546 C   0  0  0  0  0  0  0  0  0  0  0  0
   10.7827   46.7166  129.9365 C   0  0  0  0  0  0  0  0  0  0  0  0
   10.3876   45.4693  129.3716 C   0  0  0  0  0  0  0  0  0  0  0  0
    9.1070   44.9525  129.4113 C   0  0  0  0  0  0  0  0  0  0  0  0
    8.8154   43.7998  128.7778 C   0  0  0  0  0  0  0  0  0  0  0  0
    9.7895   43.1120  128.0678 C   0  0  0  0  0  0  0  0  0  0  0  0
   11.0632   43.6262  128.0302 C   0  0  0  0  0  0  0  0  0  0  0  0
   11.3657   44.7653  128.6567 C   0  0  0  0  0  0  0  0  0  0  0  0
    7.2646   49.6173  129.7412 C   0  0  0  0  0  0  0  0  0  0  0  0
    5.8068   47.8818  128.9215 C   0  0  0  0  0  0  0  0  0  0  0  0
    7.1698   48.5192  128.5903 C   0  0  0  0  0  0  0  0  0  0  0  0
    7.2123   49.0701  127.4016 O   0  0  0  0  0  0  0  0  0  0  0  0
    6.3675   48.8871  126.9127 H   0  0  0  0  0  0  0  0  0  0  0  0
    7.2584   50.8141  129.0526 N   0  0  0  0  0  0  0  0  0  0  0  0
    6.8982   52.1306  128.8990 C   0  0  0  0  0  0  0  0  0  0  0  0
    6.1774   52.8108  129.7498 O   0  0  0  0  0  0  0  0  0  0  0  0
    7.7777   50.4921  127.9996 H   0  0  0  0  0  0  0  0  0  0  0  0
    7.2607   52.9057  127.8497 O   0  0  0  0  0  0  0  0  0  0  0  0
    7.6564   53.6968  126.9529 C   0  0  0  0  0  0  0  0  0  0  0  0
    7.1201   54.0371  125.6230 C   0  0  0  0  0  0  0  0  0  0  0  0
    6.0188   54.8241  125.4698 C   0  0  0  0  0  0  0  0  0  0  0  0
    5.6132   55.1920  124.2226 C   0  0  0  0  0  0  0  0  0  0  0  0
    6.3333   54.7540  123.1062 C   0  0  0  0  0  0  0  0  0  0  0  0
    7.4504   53.9506  123.2736 C   0  0  0  0  0  0  0  0  0  0  0  0
    7.8591   53.5813  124.5113 C   0  0  0  0  0  0  0  0  0  0  0  0
 26 27  1  0  0  0
 27 28  1  0  0  0
 27 25  1  0  0  0
 25 30  1  0  0  0
 30 31  1  0  0  0
 31 32  2  0  0  0
 31 34  1  0  0  0
 34 35  1  0  0  0
 35 36  1  0  0  0
 36 37  2  0  0  0
 37 38  1  0  0  0
 38 39  2  0  0  0
 39 40  1  0  0  0
 40 41  2  0  0  0
 25  1  1  0  0  0
  1  2  2  0  0  0
  1  3  1  0  0  0
  3  5  1  0  0  0
  5 17  1  0  0  0
 17 18  1  0  0  0
 18 19  1  0  0  0
 19 20  2  0  0  0
 20 21  1  0  0  0
 21 22  2  0  0  0
 22 23  1  0  0  0
 23 24  2  0  0  0
  5  6  1  0  0  0
  6  7  2  0  0  0
  6  8  1  0  0  0
  8  9  1  0  0  0
  9 10  1  0  0  0
 10 11  1  0  0  0
 11 12  1  0  0  0
 12 13  1  0  0  0
 13 14  1  0  0  0
 14 15  1  0  0  0
 15 16  3  0  0  0
 41 36  1  0  0  0
 24 19  1  0  0  0
 28 29  1  0  0  0
 30 33  1  0  0  0
  3  4  1  0  0  0
M  END
> <minimizedAffinity>
-4.63050

> <CNNscore>
0.2615479231

> <CNNaffinity>
7.4310822487

> <CNN_VS>
1.9435840845

> <CNNaffinity_variance>
0.3906767368

$$$$
[H]O[C@]([H])(C([H])([H])[H])[C@@]([H])(C(=O)N([H])[C@]([H])(C(=O)C([H])([H])C([H])([H])C([H])([H])C([H])([H])C([H])([H])C([H])([H])C([H])([H])C#N)C([H])([H])C([H])([H])c1c([H])c([H])c([H])c([H])c1[H])N([H])C(=O)OC([H])([H])c1c([H])c([H])c([H])c([H])c1[H]


 41 42  0  0  0  0  0  0  0  0999 V2000
    9.0500   48.9520  130.0015 C   0  0  0  0  0  0  0  0  0  0  0  0
   10.0343   49.6102  130.3660 O   0  0  0  0  0  0  0  0  0  0  0  0
    9.2457   47.5434  129.7319 N   0  0  0  0  0  0  0  0  0  0  0  0
    8.2859   47.0392  129.5740 H   0  0  0  0  0  0  0  0  0  0  0  0
   10.4091   46.7694  129.7141 C   0  0  0  0  0  0  0  0  0  0  0  0
   10.0362   45.6341  128.7211 C   0  0  0  0  0  0  0  0  0  0  0  0
   10.7279   45.3104  127.8495 O   0  0  0  0  0  0  0  0  0  0  0  0
    8.6697   45.0043  128.9404 C   0  0  0  0  0  0  0  0  0  0  0  0
    8.9844   43.5167  129.0666 C   0  0  0  0  0  0  0  0  0  0  0  0
    8.5818   42.8474  130.2644 C   0  0  0  0  0  0  0  0  0  0  0  0
    9.3276   42.6457  131.5100 C   0  0  0  0  0  0  0  0  0  0  0  0
   10.7992   42.8909  131.1155 C   0  0  0  0  0  0  0  0  0  0  0  0
   11.7251   42.3989  132.1862 C   0  0  0  0  0  0  0  0  0  0  0  0
   12.3695   43.6334  132.8559 C   0  0  0  0  0  0  0  0  0  0  0  0
   11.7634   43.7987  134.1818 C   0  0  0  0  0  0  0  0  0  0  0  0
   11.2930   43.9291  135.2524 N   0  0  0  0  0  0  0  0  0  0  0  0
   11.2452   46.2074  130.8037 C   0  0  0  0  0  0  0  0  0  0  0  0
   10.9267   47.1177  131.9917 C   0  0  0  0  0  0  0  0  0  0  0  0
   10.0243   46.6881  133.0078 C   0  0  0  0  0  0  0  0  0  0  0  0
   10.0315   47.1370  134.3143 C   0  0  0  0  0  0  0  0  0  0  0  0
    9.0852   46.7291  135.1821 C   0  0  0  0  0  0  0  0  0  0  0  0
    8.0816   45.8576  134.7827 C   0  0  0  0  0  0  0  0  0  0  0  0
    8.0763   45.4106  133.4834 C   0  0  0  0  0  0  0  0  0  0  0  0
    9.0103   45.8044  132.6150 C   0  0  0  0  0  0  0  0  0  0  0  0
    7.6661   49.5159  129.8056 C   0  0  0  0  0  0  0  0  0  0  0  0
    5.5516   48.4875  129.2758 C   0  0  0  0  0  0  0  0  0  0  0  0
    7.0212   48.4471  128.8151 C   0  0  0  0  0  0  0  0  0  0  0  0
    7.1845   48.7988  127.5629 O   0  0  0  0  0  0  0  0  0  0  0  0
    6.3009   48.9412  127.1327 H   0  0  0  0  0  0  0  0  0  0  0  0
    7.5124   50.7149  129.1380 N   0  0  0  0  0  0  0  0  0  0  0  0
    6.8472   51.8874  128.8748 C   0  0  0  0  0  0  0  0  0  0  0  0
    5.7482   52.2705  129.4676 O   0  0  0  0  0  0  0  0  0  0  0  0
    8.3820   50.6347  128.2898 H   0  0  0  0  0  0  0  0  0  0  0  0
    7.2556   52.8137  127.9758 O   0  0  0  0  0  0  0  0  0  0  0  0
    7.6765   53.7398  127.2331 C   0  0  0  0  0  0  0  0  0  0  0  0
    7.3165   54.1566  125.8661 C   0  0  0  0  0  0  0  0  0  0  0  0
    8.0439   53.7722  124.7803 C   0  0  0  0  0  0  0  0  0  0  0  0
    7.6221   54.1006  123.5275 C   0  0  0  0  0  0  0  0  0  0  0  0
    6.4420   54.8346  123.3675 C   0  0  0  0  0  0  0  0  0  0  0  0
    5.7116   55.2234  124.4794 C   0  0  0  0  0  0  0  0  0  0  0  0
    6.1257   54.9000  125.7282 C   0  0  0  0  0  0  0  0  0  0  0  0
 26 27  1  0  0  0
 27 28  1  0  0  0
 27 25  1  0  0  0
 25 30  1  0  0  0
 30 31  1  0  0  0
 31 32  2  0  0  0
 31 34  1  0  0  0
 34 35  1  0  0  0
 35 36  1  0  0  0
 36 37  2  0  0  0
 37 38  1  0  0  0
 38 39  2  0  0  0
 39 40  1  0  0  0
 40 41  2  0  0  0
 25  1  1  0  0  0
  1  2  2  0  0  0
  1  3  1  0  0  0
  3  5  1  0  0  0
  5 17  1  0  0  0
 17 18  1  0  0  0
 18 19  1  0  0  0
 19 20  2  0  0  0
 20 21  1  0  0  0
 21 22  2  0  0  0
 22 23  1  0  0  0
 23 24  2  0  0  0
  5  6  1  0  0  0
  6  7  2  0  0  0
  6  8  1  0  0  0
  8  9  1  0  0  0
  9 10  1  0  0  0
 10 11  1  0  0  0
 11 12  1  0  0  0
 12 13  1  0  0  0
 13 14  1  0  0  0
 14 15  1  0  0  0
 15 16  3  0  0  0
 41 36  1  0  0  0
 24 19  1  0  0  0
 28 29  1  0  0  0
 30 33  1  0  0  0
  3  4  1  0  0  0
M  END
> <minimizedAffinity>
-3.98148

> <CNNscore>
0.2415279895

> <CNNaffinity>
7.3790817261

> <CNN_VS>
1.7822548151

> <CNNaffinity_variance>
0.5594173074

$$$$
[H]O[C@]([H])(C([H])([H])[H])[C@@]([H])(C(=O)N([H])[C@]([H])(C(=O)C([H])([H])C([H])([H])C([H])([H])C([H])([H])C([H])([H])C([H])([H])C([H])([H])C#N)C([H])([H])C([H])([H])c1c([H])c([H])c([H])c([H])c1[H])N([H])C(=O)OC([H])([H])c1c([H])c([H])c([H])c([H])c1[H]


 41 42  0  0  0  0  0  0  0  0999 V2000
    6.7707   47.5151  130.0078 C   0  0  0  0  0  0  0  0  0  0  0  0
    5.9444   46.5944  129.9409 O   0  0  0  0  0  0  0  0  0  0  0  0
    7.7816   47.4374  131.0408 N   0  0  0  0  0  0  0  0  0  0  0  0
    8.5413   48.2147  130.9028 H   0  0  0  0  0  0  0  0  0  0  0  0
    7.9531   46.5243  132.0847 C   0  0  0  0  0  0  0  0  0  0  0  0
    8.8940   47.2975  133.0496 C   0  0  0  0  0  0  0  0  0  0  0  0
    9.2246   48.3920  132.8607 O   0  0  0  0  0  0  0  0  0  0  0  0
    9.3965   46.4996  134.2424 C   0  0  0  0  0  0  0  0  0  0  0  0
   10.9138   46.5702  134.0987 C   0  0  0  0  0  0  0  0  0  0  0  0
   11.5485   45.6229  133.2358 C   0  0  0  0  0  0  0  0  0  0  0  0
   12.2491   45.8466  131.9680 C   0  0  0  0  0  0  0  0  0  0  0  0
   12.4431   44.4306  131.3862 C   0  0  0  0  0  0  0  0  0  0  0  0
   12.2816   43.3912  132.4536 C   0  0  0  0  0  0  0  0  0  0  0  0
   11.2650   42.3454  131.9434 C   0  0  0  0  0  0  0  0  0  0  0  0
   10.0961   42.3785  132.8296 C   0  0  0  0  0  0  0  0  0  0  0  0
    9.1641   42.4205  133.5465 N   0  0  0  0  0  0  0  0  0  0  0  0
    8.3192   45.0863  132.0967 C   0  0  0  0  0  0  0  0  0  0  0  0
    7.9911   44.6317  130.6730 C   0  0  0  0  0  0  0  0  0  0  0  0
    9.0313   44.4538  129.7151 C   0  0  0  0  0  0  0  0  0  0  0  0
    9.3185   43.2666  129.0697 C   0  0  0  0  0  0  0  0  0  0  0  0
   10.2727   43.2188  128.1198 C   0  0  0  0  0  0  0  0  0  0  0  0
   10.9809   44.3582  127.7646 C   0  0  0  0  0  0  0  0  0  0  0  0
   10.6955   45.5381  128.4083 C   0  0  0  0  0  0  0  0  0  0  0  0
    9.7551   45.5979  129.3537 C   0  0  0  0  0  0  0  0  0  0  0  0
    6.7904   48.7174  129.0990 C   0  0  0  0  0  0  0  0  0  0  0  0
    8.9985   49.4610  129.7158 C   0  0  0  0  0  0  0  0  0  0  0  0
    7.5245   49.7977  130.0119 C   0  0  0  0  0  0  0  0  0  0  0  0
    7.1897   51.0178  129.6688 O   0  0  0  0  0  0  0  0  0  0  0  0
    7.9916   51.5151  129.3595 H   0  0  0  0  0  0  0  0  0  0  0  0
    5.5996   49.3296  128.7612 N   0  0  0  0  0  0  0  0  0  0  0  0
    4.4907   50.0849  129.0550 C   0  0  0  0  0  0  0  0  0  0  0  0
    4.2317   50.6062  130.2243 O   0  0  0  0  0  0  0  0  0  0  0  0
    5.4114   48.8946  127.6399 H   0  0  0  0  0  0  0  0  0  0  0  0
    3.5252   50.4062  128.1618 O   0  0  0  0  0  0  0  0  0  0  0  0
    2.7002   50.7929  127.2921 C   0  0  0  0  0  0  0  0  0  0  0  0
    2.0507   52.0934  127.0496 C   0  0  0  0  0  0  0  0  0  0  0  0
    0.8580   52.4209  127.6206 C   0  0  0  0  0  0  0  0  0  0  0  0
    0.3396   53.6683  127.4463 C   0  0  0  0  0  0  0  0  0  0  0  0
    1.0390   54.6044  126.6771 C   0  0  0  0  0  0  0  0  0  0  0  0
    2.2500   54.2593  126.0979 C   0  0  0  0  0  0  0  0  0  0  0  0
    2.7711   53.0202  126.2674 C   0  0  0  0  0  0  0  0  0  0  0  0
 26 27  1  0  0  0
 27 28  1  0  0  0
 27 25  1  0  0  0
 25 30  1  0  0  0
 30 31  1  0  0  0
 31 32  2  0  0  0
 31 34  1  0  0  0
 34 35  1  0  0  0
 35 36  1  0  0  0
 36 37  2  0  0  0
 37 38  1  0  0  0
 38 39  2  0  0  0
 39 40  1  0  0  0
 40 41  2  0  0  0
 25  1  1  0  0  0
  1  2  2  0  0  0
  1  3  1  0  0  0
  3  5  1  0  0  0
  5 17  1  0  0  0
 17 18  1  0  0  0
 18 19  1  0  0  0
 19 20  2  0  0  0
 20 21  1  0  0  0
 21 22  2  0  0  0
 22 23  1  0  0  0
 23 24  2  0  0  0
  5  6  1  0  0  0
  6  7  2  0  0  0
  6  8  1  0  0  0
  8  9  1  0  0  0
  9 10  1  0  0  0
 10 11  1  0  0  0
 11 12  1  0  0  0
 12 13  1  0  0  0
 13 14  1  0  0  0
 14 15  1  0  0  0
 15 16  3  0  0  0
 41 36  1  0  0  0
 24 19  1  0  0  0
 28 29  1  0  0  0
 30 33  1  0  0  0
  3  4  1  0  0  0
M  END
> <minimizedAffinity>
-1.42576

> <CNNscore>
0.2387645841

> <CNNaffinity>
7.1640839577

> <CNN_VS>
1.7105295658

> <CNNaffinity_variance>
0.4840956330

$$$$
[H]O[C@]([H])(C([H])([H])[H])[C@@]([H])(C(=O)N([H])[C@]([H])(C(=O)C([H])([H])C([H])([H])C([H])([H])C([H])([H])C([H])([H])C([H])([H])C([H])([H])C#N)C([H])([H])C([H])([H])c1c([H])c([H])c([H])c([H])c1[H])N([H])C(=O)OC([H])([H])c1c([H])c([H])c([H])c([H])c1[H]


 41 42  0  0  0  0  0  0  0  0999 V2000
    9.8158   45.4935  128.1631 C   0  0  0  0  0  0  0  0  0  0  0  0
    9.6743   46.2199  127.1694 O   0  0  0  0  0  0  0  0  0  0  0  0
    8.8900   45.6692  129.2616 N   0  0  0  0  0  0  0  0  0  0  0  0
    9.0124   44.8748  130.0062 H   0  0  0  0  0  0  0  0  0  0  0  0
    7.8771   46.6110  129.4613 C   0  0  0  0  0  0  0  0  0  0  0  0
    8.5431   47.9238  128.9643 C   0  0  0  0  0  0  0  0  0  0  0  0
    9.6456   48.1950  129.1962 O   0  0  0  0  0  0  0  0  0  0  0  0
    7.6301   48.8603  128.1888 C   0  0  0  0  0  0  0  0  0  0  0  0
    7.1248   49.8240  129.2583 C   0  0  0  0  0  0  0  0  0  0  0  0
    6.9296   51.1913  128.8879 C   0  0  0  0  0  0  0  0  0  0  0  0
    7.3628   51.8957  127.6777 C   0  0  0  0  0  0  0  0  0  0  0  0
    7.1590   53.3881  128.0134 C   0  0  0  0  0  0  0  0  0  0  0  0
    7.1692   54.2191  126.7664 C   0  0  0  0  0  0  0  0  0  0  0  0
    8.3118   53.7013  125.8642 C   0  0  0  0  0  0  0  0  0  0  0  0
    8.1435   54.2949  124.5330 C   0  0  0  0  0  0  0  0  0  0  0  0
    7.9933   54.7624  123.4637 N   0  0  0  0  0  0  0  0  0  0  0  0
    7.0195   46.9143  130.6338 C   0  0  0  0  0  0  0  0  0  0  0  0
    7.9965   46.8375  131.8088 C   0  0  0  0  0  0  0  0  0  0  0  0
    8.7286   47.9910  132.2145 C   0  0  0  0  0  0  0  0  0  0  0  0
    8.5112   49.2720  131.7452 C   0  0  0  0  0  0  0  0  0  0  0  0
    9.2041   50.3113  132.2500 C   0  0  0  0  0  0  0  0  0  0  0  0
   10.1432   50.1202  133.2538 C   0  0  0  0  0  0  0  0  0  0  0  0
   10.3596   48.8454  133.7187 C   0  0  0  0  0  0  0  0  0  0  0  0
    9.6824   47.8069  133.2244 C   0  0  0  0  0  0  0  0  0  0  0  0
   10.8918   44.4490  128.3154 C   0  0  0  0  0  0  0  0  0  0  0  0
    9.7662   42.8637  129.7399 C   0  0  0  0  0  0  0  0  0  0  0  0
   10.0438   43.1018  128.2433 C   0  0  0  0  0  0  0  0  0  0  0  0
    8.9552   43.2617  127.5305 O   0  0  0  0  0  0  0  0  0  0  0  0
    8.1538   43.1096  128.0968 H   0  0  0  0  0  0  0  0  0  0  0  0
   11.5690   44.3453  129.5143 N   0  0  0  0  0  0  0  0  0  0  0  0
   12.7179   44.2625  130.2625 C   0  0  0  0  0  0  0  0  0  0  0  0
   13.9289   44.2759  129.7735 O   0  0  0  0  0  0  0  0  0  0  0  0
   10.6560   44.1397  130.2929 H   0  0  0  0  0  0  0  0  0  0  0  0
   12.7466   44.1751  131.6134 O   0  0  0  0  0  0  0  0  0  0  0  0
   12.7421   43.9778  132.8574 C   0  0  0  0  0  0  0  0  0  0  0  0
   11.7162   44.1956  133.8928 C   0  0  0  0  0  0  0  0  0  0  0  0
   11.8540   43.7086  135.1575 C   0  0  0  0  0  0  0  0  0  0  0  0
   10.9281   44.0135  136.1089 C   0  0  0  0  0  0  0  0  0  0  0  0
    9.8386   44.8253  135.7758 C   0  0  0  0  0  0  0  0  0  0  0  0
    9.7066   45.3125  134.4849 C   0  0  0  0  0  0  0  0  0  0  0  0
   10.6240   45.0130  133.5340 C   0  0  0  0  0  0  0  0  0  0  0  0
 26 27  1  0  0  0
 27 28  1  0  0  0
 27 25  1  0  0  0
 25 30  1  0  0  0
 30 31  1  0  0  0
 31 32  2  0  0  0
 31 34  1  0  0  0
 34 35  1  0  0  0
 35 36  1  0  0  0
 36 37  2  0  0  0
 37 38  1  0  0  0
 38 39  2  0  0  0
 39 40  1  0  0  0
 40 41  2  0  0  0
 25  1  1  0  0  0
  1  2  2  0  0  0
  1  3  1  0  0  0
  3  5  1  0  0  0
  5 17  1  0  0  0
 17 18  1  0  0  0
 18 19  1  0  0  0
 19 20  2  0  0  0
 20 21  1  0  0  0
 21 22  2  0  0  0
 22 23  1  0  0  0
 23 24  2  0  0  0
  5  6  1  0  0  0
  6  7  2  0  0  0
  6  8  1  0  0  0
  8  9  1  0  0  0
  9 10  1  0  0  0
 10 11  1  0  0  0
 11 12  1  0  0  0
 12 13  1  0  0  0
 13 14  1  0  0  0
 14 15  1  0  0  0
 15 16  3  0  0  0
 41 36  1  0  0  0
 24 19  1  0  0  0
 28 29  1  0  0  0
 30 33  1  0  0  0
  3  4  1  0  0  0
M  END
> <minimizedAffinity>
-0.00761

> <CNNscore>
0.2326675355

> <CNNaffinity>
7.2794432640

> <CNN_VS>
1.6936901808

> <CNNaffinity_variance>
0.1570450366

$$$$
[H]O[C@]([H])(C([H])([H])[H])[C@@]([H])(C(=O)N([H])[C@]([H])(C(=O)C([H])([H])C([H])([H])C([H])([H])C([H])([H])C([H])([H])C([H])([H])C([H])([H])C#N)C([H])([H])C([H])([H])c1c([H])c([H])c([H])c([H])c1[H])N([H])C(=O)OC([H])([H])c1c([H])c([H])c([H])c([H])c1[H]


 41 42  0  0  0  0  0  0  0  0999 V2000
    9.7984   45.5634  128.5034 C   0  0  0  0  0  0  0  0  0  0  0  0
   10.3580   46.5796  128.0684 O   0  0  0  0  0  0  0  0  0  0  0  0
    8.4362   45.6955  128.9745 N   0  0  0  0  0  0  0  0  0  0  0  0
    7.9984   44.7132  129.1836 H   0  0  0  0  0  0  0  0  0  0  0  0
    7.6269   46.8248  129.1252 C   0  0  0  0  0  0  0  0  0  0  0  0
    6.8820   46.5232  130.4550 C   0  0  0  0  0  0  0  0  0  0  0  0
    5.8711   45.9581  130.4939 O   0  0  0  0  0  0  0  0  0  0  0  0
    7.5486   47.0670  131.7088 C   0  0  0  0  0  0  0  0  0  0  0  0
    8.5306   45.9639  132.0916 C   0  0  0  0  0  0  0  0  0  0  0  0
    9.8211   45.9741  131.4757 C   0  0  0  0  0  0  0  0  0  0  0  0
   11.0762   46.5553  131.9610 C   0  0  0  0  0  0  0  0  0  0  0  0
   10.6325   47.7784  132.7907 C   0  0  0  0  0  0  0  0  0  0  0  0
   11.3589   47.8233  134.1007 C   0  0  0  0  0  0  0  0  0  0  0  0
   10.3173   47.6230  135.2244 C   0  0  0  0  0  0  0  0  0  0  0  0
    9.0210   48.1032  134.7326 C   0  0  0  0  0  0  0  0  0  0  0  0
    7.9852   48.4818  134.3225 N   0  0  0  0  0  0  0  0  0  0  0  0
    6.6998   47.5141  128.1938 C   0  0  0  0  0  0  0  0  0  0  0  0
    7.2271   48.9504  128.1772 C   0  0  0  0  0  0  0  0  0  0  0  0
    7.8680   49.4966  129.3270 C   0  0  0  0  0  0  0  0  0  0  0  0
    7.2286   50.1952  130.3327 C   0  0  0  0  0  0  0  0  0  0  0  0
    7.9102   50.6039  131.4206 C   0  0  0  0  0  0  0  0  0  0  0  0
    9.2631   50.3271  131.5582 C   0  0  0  0  0  0  0  0  0  0  0  0
    9.8984   49.6335  130.5565 C   0  0  0  0  0  0  0  0  0  0  0  0
    9.2353   49.2263  129.4721 C   0  0  0  0  0  0  0  0  0  0  0  0
   10.4393   44.2019  128.5897 C   0  0  0  0  0  0  0  0  0  0  0  0
    9.9851   42.1513  127.4074 C   0  0  0  0  0  0  0  0  0  0  0  0
    9.2290   43.2508  128.1776 C   0  0  0  0  0  0  0  0  0  0  0  0
    8.5933   42.8041  129.2334 O   0  0  0  0  0  0  0  0  0  0  0  0
    8.6598   41.8142  129.2756 H   0  0  0  0  0  0  0  0  0  0  0  0
   10.8323   43.7161  129.8211 N   0  0  0  0  0  0  0  0  0  0  0  0
   11.0020   42.7053  130.7355 C   0  0  0  0  0  0  0  0  0  0  0  0
   10.6943   41.4530  130.5284 O   0  0  0  0  0  0  0  0  0  0  0  0
   11.0755   44.7459  130.4230 H   0  0  0  0  0  0  0  0  0  0  0  0
   11.5312   42.8717  131.9706 O   0  0  0  0  0  0  0  0  0  0  0  0
   12.0108   43.1454  133.1027 C   0  0  0  0  0  0  0  0  0  0  0  0
   11.4051   43.6872  134.3321 C   0  0  0  0  0  0  0  0  0  0  0  0
   10.2564   44.4191  134.3076 C   0  0  0  0  0  0  0  0  0  0  0  0
    9.6795   44.8197  135.4747 C   0  0  0  0  0  0  0  0  0  0  0  0
   10.2763   44.4761  136.6924 C   0  0  0  0  0  0  0  0  0  0  0  0
   11.4469   43.7341  136.7054 C   0  0  0  0  0  0  0  0  0  0  0  0
   12.0257   43.3325  135.5482 C   0  0  0  0  0  0  0  0  0  0  0  0
 26 27  1  0  0  0
 27 28  1  0  0  0
 27 25  1  0  0  0
 25 30  1  0  0  0
 30 31  1  0  0  0
 31 32  2  0  0  0
 31 34  1  0  0  0
 34 35  1  0  0  0
 35 36  1  0  0  0
 36 37  2  0  0  0
 37 38  1  0  0  0
 38 39  2  0  0  0
 39 40  1  0  0  0
 40 41  2  0  0  0
 25  1  1  0  0  0
  1  2  2  0  0  0
  1  3  1  0  0  0
  3  5  1  0  0  0
  5 17  1  0  0  0
 17 18  1  0  0  0
 18 19  1  0  0  0
 19 20  2  0  0  0
 20 21  1  0  0  0
 21 22  2  0  0  0
 22 23  1  0  0  0
 23 24  2  0  0  0
  5  6  1  0  0  0
  6  7  2  0  0  0
  6  8  1  0  0  0
  8  9  1  0  0  0
  9 10  1  0  0  0
 10 11  1  0  0  0
 11 12  1  0  0  0
 12 13  1  0  0  0
 13 14  1  0  0  0
 14 15  1  0  0  0
 15 16  3  0  0  0
 41 36  1  0  0  0
 24 19  1  0  0  0
 28 29  1  0  0  0
 30 33  1  0  0  0
  3  4  1  0  0  0
M  END
> <minimizedAffinity>
4.65921

> <CNNscore>
0.2260654718

> <CNNaffinity>
7.3775277138

> <CNN_VS>
1.6678042412

> <CNNaffinity_variance>
0.3921201825

$$$$
[H]O[C@]([H])(C([H])([H])[H])[C@@]([H])(C(=O)N([H])[C@]([H])(C(=O)C([H])([H])C([H])([H])C([H])([H])C([H])([H])C([H])([H])C([H])([H])C([H])([H])C#N)C([H])([H])C([H])([H])c1c([H])c([H])c([H])c([H])c1[H])N([H])C(=O)OC([H])([H])c1c([H])c([H])c([H])c([H])c1[H]


 41 42  0  0  0  0  0  0  0  0999 V2000
   10.5168   45.1005  128.2079 C   0  0  0  0  0  0  0  0  0  0  0  0
   10.8288   45.7096  127.1750 O   0  0  0  0  0  0  0  0  0  0  0  0
    9.3763   45.5854  128.9557 N   0  0  0  0  0  0  0  0  0  0  0  0
    9.1032   44.8824  129.7504 H   0  0  0  0  0  0  0  0  0  0  0  0
    8.5801   46.7195  128.7748 C   0  0  0  0  0  0  0  0  0  0  0  0
    9.3787   47.8101  129.5409 C   0  0  0  0  0  0  0  0  0  0  0  0
    9.4859   48.8973  129.1543 O   0  0  0  0  0  0  0  0  0  0  0  0
   10.0577   47.3394  130.8174 C   0  0  0  0  0  0  0  0  0  0  0  0
    9.3022   48.0853  131.9132 C   0  0  0  0  0  0  0  0  0  0  0  0
    8.0638   47.5326  132.3666 C   0  0  0  0  0  0  0  0  0  0  0  0
    7.8249   46.3485  133.1967 C   0  0  0  0  0  0  0  0  0  0  0  0
    7.5475   45.2215  132.1798 C   0  0  0  0  0  0  0  0  0  0  0  0
    8.7865   44.4171  131.9274 C   0  0  0  0  0  0  0  0  0  0  0  0
    8.6226   43.0602  132.6482 C   0  0  0  0  0  0  0  0  0  0  0  0
    9.8473   42.2813  132.4335 C   0  0  0  0  0  0  0  0  0  0  0  0
   10.8296   41.6618  132.2446 N   0  0  0  0  0  0  0  0  0  0  0  0
    7.1277   46.9546  128.9674 C   0  0  0  0  0  0  0  0  0  0  0  0
    6.8993   48.3031  128.2813 C   0  0  0  0  0  0  0  0  0  0  0  0
    6.5675   49.4563  129.0501 C   0  0  0  0  0  0  0  0  0  0  0  0
    7.2984   50.6284  129.0747 C   0  0  0  0  0  0  0  0  0  0  0  0
    6.8588   51.6932  129.7733 C   0  0  0  0  0  0  0  0  0  0  0  0
    5.6629   51.6390  130.4755 C   0  0  0  0  0  0  0  0  0  0  0  0
    4.9376   50.4723  130.4515 C   0  0  0  0  0  0  0  0  0  0  0  0
    5.3640   49.4092  129.7662 C   0  0  0  0  0  0  0  0  0  0  0  0
   11.2484   43.8989  128.7488 C   0  0  0  0  0  0  0  0  0  0  0  0
    9.6326   42.6375  127.4811 C   0  0  0  0  0  0  0  0  0  0  0  0
   10.0567   42.8594  128.9455 C   0  0  0  0  0  0  0  0  0  0  0  0
   10.4709   41.7666  129.5394 O   0  0  0  0  0  0  0  0  0  0  0  0
   10.3448   40.9859  128.9389 H   0  0  0  0  0  0  0  0  0  0  0  0
   11.8316   43.9681  129.9986 N   0  0  0  0  0  0  0  0  0  0  0  0
   12.9197   44.0214  130.8350 C   0  0  0  0  0  0  0  0  0  0  0  0
   14.1647   44.0221  130.4400 O   0  0  0  0  0  0  0  0  0  0  0  0
   10.8664   43.8235  130.7263 H   0  0  0  0  0  0  0  0  0  0  0  0
   12.8443   44.1001  132.1846 O   0  0  0  0  0  0  0  0  0  0  0  0
   12.6544   44.1631  133.4281 C   0  0  0  0  0  0  0  0  0  0  0  0
   11.6445   44.8612  134.2434 C   0  0  0  0  0  0  0  0  0  0  0  0
   10.9528   44.2280  135.2316 C   0  0  0  0  0  0  0  0  0  0  0  0
   10.0980   44.9333  136.0236 C   0  0  0  0  0  0  0  0  0  0  0  0
    9.9363   46.3066  135.8120 C   0  0  0  0  0  0  0  0  0  0  0  0
   10.6426   46.9400  134.8014 C   0  0  0  0  0  0  0  0  0  0  0  0
   11.4943   46.2442  134.0102 C   0  0  0  0  0  0  0  0  0  0  0  0
 26 27  1  0  0  0
 27 28  1  0  0  0
 27 25  1  0  0  0
 25 30  1  0  0  0
 30 31  1  0  0  0
 31 32  2  0  0  0
 31 34  1  0  0  0
 34 35  1  0  0  0
 35 36  1  0  0  0
 36 37  2  0  0  0
 37 38  1  0  0  0
 38 39  2  0  0  0
 39 40  1  0  0  0
 40 41  2  0  0  0
 25  1  1  0  0  0
  1  2  2  0  0  0
  1  3  1  0  0  0
  3  5  1  0  0  0
  5 17  1  0  0  0
 17 18  1  0  0  0
 18 19  1  0  0  0
 19 20  2  0  0  0
 20 21  1  0  0  0
 21 22  2  0  0  0
 22 23  1  0  0  0
 23 24  2  0  0  0
  5  6  1  0  0  0
  6  7  2  0  0  0
  6  8  1  0  0  0
  8  9  1  0  0  0
  9 10  1  0  0  0
 10 11  1  0  0  0
 11 12  1  0  0  0
 12 13  1  0  0  0
 13 14  1  0  0  0
 14 15  1  0  0  0
 15 16  3  0  0  0
 41 36  1  0  0  0
 24 19  1  0  0  0
 28 29  1  0  0  0
 30 33  1  0  0  0
  3  4  1  0  0  0
M  END
> <minimizedAffinity>
2.45042

> <CNNscore>
0.2251430750

> <CNNaffinity>
7.2847976685

> <CNN_VS>
1.6401216984

> <CNNaffinity_variance>
0.2605068982

$$$$
[H]O[C@]([H])(C([H])([H])[H])[C@@]([H])(C(=O)N([H])[C@]([H])(C(=O)C([H])([H])C([H])([H])C([H])([H])C([H])([H])C([H])([H])C([H])([H])C([H])([H])C#N)C([H])([H])C([H])([H])c1c([H])c([H])c([H])c([H])c1[H])N([H])C(=O)OC([H])([H])c1c([H])c([H])c([H])c([H])c1[H]


 41 42  0  0  0  0  0  0  0  0999 V2000
    8.5976   50.2177  130.9395 C   0  0  0  0  0  0  0  0  0  0  0  0
    8.7629   51.3773  131.3432 O   0  0  0  0  0  0  0  0  0  0  0  0
    8.7958   49.1413  131.8867 N   0  0  0  0  0  0  0  0  0  0  0  0
    8.4706   48.1844  131.4639 H   0  0  0  0  0  0  0  0  0  0  0  0
    9.2507   49.1591  133.2080 C   0  0  0  0  0  0  0  0  0  0  0  0
   10.5886   48.3755  133.1080 C   0  0  0  0  0  0  0  0  0  0  0  0
   11.4344   48.4750  133.8938 O   0  0  0  0  0  0  0  0  0  0  0  0
   10.7359   47.4998  131.8737 C   0  0  0  0  0  0  0  0  0  0  0  0
   11.9985   46.6936  132.1632 C   0  0  0  0  0  0  0  0  0  0  0  0
   11.8949   45.2674  132.1669 C   0  0  0  0  0  0  0  0  0  0  0  0
   12.6667   44.2831  132.9310 C   0  0  0  0  0  0  0  0  0  0  0  0
   12.4089   42.9484  132.2005 C   0  0  0  0  0  0  0  0  0  0  0  0
   11.2090   43.0540  131.3091 C   0  0  0  0  0  0  0  0  0  0  0  0
   10.3984   41.7464  131.4528 C   0  0  0  0  0  0  0  0  0  0  0  0
    9.0485   41.9895  130.9317 C   0  0  0  0  0  0  0  0  0  0  0  0
    7.9717   42.1992  130.5063 N   0  0  0  0  0  0  0  0  0  0  0  0
    8.5861   48.8251  134.4920 C   0  0  0  0  0  0  0  0  0  0  0  0
    7.8739   47.5066  134.1827 C   0  0  0  0  0  0  0  0  0  0  0  0
    8.5705   46.2680  134.2914 C   0  0  0  0  0  0  0  0  0  0  0  0
    9.5586   45.9941  135.2173 C   0  0  0  0  0  0  0  0  0  0  0  0
   10.1030   44.7640  135.2917 C   0  0  0  0  0  0  0  0  0  0  0  0
    9.6802   43.7464  134.4480 C   0  0  0  0  0  0  0  0  0  0  0  0
    8.6986   44.0204  133.5265 C   0  0  0  0  0  0  0  0  0  0  0  0
    8.1537   45.2359  133.4402 C   0  0  0  0  0  0  0  0  0  0  0  0
    8.2180   49.8467  129.5287 C   0  0  0  0  0  0  0  0  0  0  0  0
    6.1779   50.1665  130.7717 C   0  0  0  0  0  0  0  0  0  0  0  0
    6.7784   50.5171  129.3969 C   0  0  0  0  0  0  0  0  0  0  0  0
    6.8714   51.8070  129.1827 O   0  0  0  0  0  0  0  0  0  0  0  0
    6.4494   52.3062  129.9302 H   0  0  0  0  0  0  0  0  0  0  0  0
    7.9914   48.5211  129.2155 N   0  0  0  0  0  0  0  0  0  0  0  0
    7.1820   47.4804  128.8302 C   0  0  0  0  0  0  0  0  0  0  0  0
    5.9082   47.5863  128.5614 O   0  0  0  0  0  0  0  0  0  0  0  0
    9.0523   48.0121  129.5276 H   0  0  0  0  0  0  0  0  0  0  0  0
    7.6044   46.2055  128.6588 O   0  0  0  0  0  0  0  0  0  0  0  0
    8.0919   45.0476  128.5689 C   0  0  0  0  0  0  0  0  0  0  0  0
    9.4777   44.5613  128.4469 C   0  0  0  0  0  0  0  0  0  0  0  0
    9.7723   43.3600  127.8759 C   0  0  0  0  0  0  0  0  0  0  0  0
   11.0714   42.9917  127.6971 C   0  0  0  0  0  0  0  0  0  0  0  0
   12.0950   43.8533  128.1056 C   0  0  0  0  0  0  0  0  0  0  0  0
   11.7837   45.0717  128.6886 C   0  0  0  0  0  0  0  0  0  0  0  0
   10.4936   45.4440  128.8692 C   0  0  0  0  0  0  0  0  0  0  0  0
 26 27  1  0  0  0
 27 28  1  0  0  0
 27 25  1  0  0  0
 25 30  1  0  0  0
 30 31  1  0  0  0
 31 32  2  0  0  0
 31 34  1  0  0  0
 34 35  1  0  0  0
 35 36  1  0  0  0
 36 37  2  0  0  0
 37 38  1  0  0  0
 38 39  2  0  0  0
 39 40  1  0  0  0
 40 41  2  0  0  0
 25  1  1  0  0  0
  1  2  2  0  0  0
  1  3  1  0  0  0
  3  5  1  0  0  0
  5 17  1  0  0  0
 17 18  1  0  0  0
 18 19  1  0  0  0
 19 20  2  0  0  0
 20 21  1  0  0  0
 21 22  2  0  0  0
 22 23  1  0  0  0
 23 24  2  0  0  0
  5  6  1  0  0  0
  6  7  2  0  0  0
  6  8  1  0  0  0
  8  9  1  0  0  0
  9 10  1  0  0  0
 10 11  1  0  0  0
 11 12  1  0  0  0
 12 13  1  0  0  0
 13 14  1  0  0  0
 14 15  1  0  0  0
 15 16  3  0  0  0
 41 36  1  0  0  0
 24 19  1  0  0  0
 28 29  1  0  0  0
 30 33  1  0  0  0
  3  4  1  0  0  0
M  END
> <minimizedAffinity>
1.05545

> <CNNscore>
0.2241923511

> <CNNaffinity>
7.4009184837

> <CNN_VS>
1.6592292786

> <CNNaffinity_variance>
0.5605698824

$$$$
[H]O[C@]([H])(C([H])([H])[H])[C@@]([H])(C(=O)N([H])[C@]([H])(C(=O)C([H])([H])C([H])([H])C([H])([H])C([H])([H])C([H])([H])C([H])([H])C([H])([H])C#N)C([H])([H])C([H])([H])c1c([H])c([H])c([H])c([H])c1[H])N([H])C(=O)OC([H])([H])c1c([H])c([H])c([H])c([H])c1[H]


 41 42  0  0  0  0  0  0  0  0999 V2000
    8.4439   49.2279  130.8414 C   0  0  0  0  0  0  0  0  0  0  0  0
    9.4735   49.9159  130.8851 O   0  0  0  0  0  0  0  0  0  0  0  0
    8.4252   47.9969  131.6025 N   0  0  0  0  0  0  0  0  0  0  0  0
    7.4203   47.5606  131.6144 H   0  0  0  0  0  0  0  0  0  0  0  0
    9.4298   47.3613  132.3371 C   0  0  0  0  0  0  0  0  0  0  0  0
    8.6147   46.4247  133.2711 C   0  0  0  0  0  0  0  0  0  0  0  0
    8.6271   46.5241  134.4256 O   0  0  0  0  0  0  0  0  0  0  0  0
    7.8321   45.3280  132.5663 C   0  0  0  0  0  0  0  0  0  0  0  0
    8.8180   44.1643  132.5236 C   0  0  0  0  0  0  0  0  0  0  0  0
    8.4074   42.9639  131.8640 C   0  0  0  0  0  0  0  0  0  0  0  0
    8.5126   42.6007  130.4479 C   0  0  0  0  0  0  0  0  0  0  0  0
    9.3034   43.7650  129.8150 C   0  0  0  0  0  0  0  0  0  0  0  0
    9.8469   43.3714  128.4751 C   0  0  0  0  0  0  0  0  0  0  0  0
   10.8798   44.4402  128.0528 C   0  0  0  0  0  0  0  0  0  0  0  0
   10.4208   45.7393  128.5572 C   0  0  0  0  0  0  0  0  0  0  0  0
   10.0664   46.7888  128.9539 N   0  0  0  0  0  0  0  0  0  0  0  0
   10.6024   47.8876  133.0788 C   0  0  0  0  0  0  0  0  0  0  0  0
   11.7865   47.2167  132.3795 C   0  0  0  0  0  0  0  0  0  0  0  0
   11.9683   45.8056  132.4633 C   0  0  0  0  0  0  0  0  0  0  0  0
   12.2570   44.9798  131.3942 C   0  0  0  0  0  0  0  0  0  0  0  0
   12.4897   43.6670  131.5882 C   0  0  0  0  0  0  0  0  0  0  0  0
   12.4516   43.1183  132.8624 C   0  0  0  0  0  0  0  0  0  0  0  0
   12.1629   43.9404  133.9248 C   0  0  0  0  0  0  0  0  0  0  0  0
   11.9268   45.2418  133.7455 C   0  0  0  0  0  0  0  0  0  0  0  0
    7.2144   49.5745  130.0414 C   0  0  0  0  0  0  0  0  0  0  0  0
    5.8136   47.8156  129.1734 C   0  0  0  0  0  0  0  0  0  0  0  0
    7.2113   48.4210  128.9419 C   0  0  0  0  0  0  0  0  0  0  0  0
    7.3738   48.9111  127.7370 O   0  0  0  0  0  0  0  0  0  0  0  0
    6.5761   48.7128  127.1799 H   0  0  0  0  0  0  0  0  0  0  0  0
    7.1976   50.7368  129.2961 N   0  0  0  0  0  0  0  0  0  0  0  0
    6.5536   51.7227  128.5893 C   0  0  0  0  0  0  0  0  0  0  0  0
    5.2621   51.7862  128.4053 O   0  0  0  0  0  0  0  0  0  0  0  0
    8.3861   50.9253  129.1119 H   0  0  0  0  0  0  0  0  0  0  0  0
    7.1741   52.7741  128.0037 O   0  0  0  0  0  0  0  0  0  0  0  0
    7.6470   53.8123  127.4698 C   0  0  0  0  0  0  0  0  0  0  0  0
    7.6263   54.3127  126.0838 C   0  0  0  0  0  0  0  0  0  0  0  0
    8.7049   54.1976  125.2598 C   0  0  0  0  0  0  0  0  0  0  0  0
    8.6116   54.5870  123.9579 C   0  0  0  0  0  0  0  0  0  0  0  0
    7.4043   55.1059  123.4782 C   0  0  0  0  0  0  0  0  0  0  0  0
    6.3142   55.2217  124.3264 C   0  0  0  0  0  0  0  0  0  0  0  0
    6.4004   54.8362  125.6223 C   0  0  0  0  0  0  0  0  0  0  0  0
 26 27  1  0  0  0
 27 28  1  0  0  0
 27 25  1  0  0  0
 25 30  1  0  0  0
 30 31  1  0  0  0
 31 32  2  0  0  0
 31 34  1  0  0  0
 34 35  1  0  0  0
 35 36  1  0  0  0
 36 37  2  0  0  0
 37 38  1  0  0  0
 38 39  2  0  0  0
 39 40  1  0  0  0
 40 41  2  0  0  0
 25  1  1  0  0  0
  1  2  2  0  0  0
  1  3  1  0  0  0
  3  5  1  0  0  0
  5 17  1  0  0  0
 17 18  1  0  0  0
 18 19  1  0  0  0
 19 20  2  0  0  0
 20 21  1  0  0  0
 21 22  2  0  0  0
 22 23  1  0  0  0
 23 24  2  0  0  0
  5  6  1  0  0  0
  6  7  2  0  0  0
  6  8  1  0  0  0
  8  9  1  0  0  0
  9 10  1  0  0  0
 10 11  1  0  0  0
 11 12  1  0  0  0
 12 13  1  0  0  0
 13 14  1  0  0  0
 14 15  1  0  0  0
 15 16  3  0  0  0
 41 36  1  0  0  0
 24 19  1  0  0  0
 28 29  1  0  0  0
 30 33  1  0  0  0
  3  4  1  0  0  0
M  END
> <minimizedAffinity>
-4.51410

> <CNNscore>
0.1977808028

> <CNNaffinity>
7.2770299911

> <CNN_VS>
1.4392567873

> <CNNaffinity_variance>
0.6295156479

$$$$
[H]c1nc([H])c(-c2c([H])c([H])c(N([H])c3nc([H])c(-c4c([H])c([H])c([H])c([H])c4[H])o3)c([H])c2OC([H])([H])[H])o1


 26 29  0  0  0  0  0  0  0  0999 V2000
    9.3049   50.0003  132.1599 C   0  0  0  0  0  0  0  0  0  0  0  0
   10.0454   49.1959  133.0404 C   0  0  0  0  0  0  0  0  0  0  0  0
    9.9797   47.8296  133.0448 C   0  0  0  0  0  0  0  0  0  0  0  0
    9.1138   47.2639  132.1017 C   0  0  0  0  0  0  0  0  0  0  0  0
    8.3905   48.0540  131.2412 C   0  0  0  0  0  0  0  0  0  0  0  0
    8.4621   49.4271  131.2432 C   0  0  0  0  0  0  0  0  0  0  0  0
    7.6758   50.2400  130.3105 C   0  0  0  0  0  0  0  0  0  0  0  0
    7.7858   50.1658  128.9299 C   0  0  0  0  0  0  0  0  0  0  0  0
    6.9215   51.0463  128.4041 N   0  0  0  0  0  0  0  0  0  0  0  0
    6.3180   51.6241  129.4528 C   0  0  0  0  0  0  0  0  0  0  0  0
    6.7712   51.1401  130.5838 O   0  0  0  0  0  0  0  0  0  0  0  0
    9.6203   52.0116  133.4534 C   0  0  0  0  0  0  0  0  0  0  0  0
    9.4130   51.3816  132.2024 O   0  0  0  0  0  0  0  0  0  0  0  0
   10.6972   46.9619  133.9030 N   0  0  0  0  0  0  0  0  0  0  0  0
   11.1557   47.4166  134.7683 H   0  0  0  0  0  0  0  0  0  0  0  0
   10.8804   45.5737  133.7560 C   0  0  0  0  0  0  0  0  0  0  0  0
   11.4129   44.7569  134.6879 N   0  0  0  0  0  0  0  0  0  0  0  0
   11.4340   43.5138  134.2134 C   0  0  0  0  0  0  0  0  0  0  0  0
   10.8931   43.5941  132.9504 C   0  0  0  0  0  0  0  0  0  0  0  0
   10.5903   44.8322  132.7472 O   0  0  0  0  0  0  0  0  0  0  0  0
   10.7287   42.4439  132.0701 C   0  0  0  0  0  0  0  0  0  0  0  0
   11.3491   41.2701  132.3695 C   0  0  0  0  0  0  0  0  0  0  0  0
   11.1813   40.1859  131.5203 C   0  0  0  0  0  0  0  0  0  0  0  0
   10.3902   40.3094  130.3860 C   0  0  0  0  0  0  0  0  0  0  0  0
    9.7612   41.5048  130.0854 C   0  0  0  0  0  0  0  0  0  0  0  0
    9.9332   42.5627  130.9266 C   0  0  0  0  0  0  0  0  0  0  0  0
 12 13  1  0  0  0
 13  1  1  0  0  0
  1  2  2  0  0  0
  2  3  1  0  0  0
  3 14  1  0  0  0
 14 16  1  0  0  0
 16 17  2  0  0  0
 17 18  1  0  0  0
 18 19  2  0  0  0
 19 20  1  0  0  0
 19 21  1  0  0  0
 21 22  2  0  0  0
 22 23  1  0  0  0
 23 24  2  0  0  0
 24 25  1  0  0  0
 25 26  2  0  0  0
  3  4  2  0  0  0
  4  5  1  0  0  0
  5  6  2  0  0  0
  6  7  1  0  0  0
  7  8  2  0  0  0
  8  9  1  0  0  0
  9 10  2  0  0  0
 10 11  1  0  0  0
  6  1  1  0  0  0
 11  7  1  0  0  0
 20 16  1  0  0  0
 26 21  1  0  0  0
 14 15  1  0  0  0
M  END
> <minimizedAffinity>
7.07091

> <CNNscore>
0.5068793297

> <CNNaffinity>
7.3235425949

> <CNN_VS>
3.7121522427

> <CNNaffinity_variance>
2.2418639660

$$$$
[H]c1nc([H])c(-c2c([H])c([H])c(N([H])c3nc([H])c(-c4c([H])c([H])c([H])c([H])c4[H])o3)c([H])c2OC([H])([H])[H])o1


 26 29  0  0  0  0  0  0  0  0999 V2000
    9.0824   49.4415  131.8109 C   0  0  0  0  0  0  0  0  0  0  0  0
    9.6157   48.3747  132.5513 C   0  0  0  0  0  0  0  0  0  0  0  0
    9.1478   47.0922  132.4644 C   0  0  0  0  0  0  0  0  0  0  0  0
    8.0835   46.8969  131.5764 C   0  0  0  0  0  0  0  0  0  0  0  0
    7.5639   47.9433  130.8532 C   0  0  0  0  0  0  0  0  0  0  0  0
    8.0399   49.2298  130.9463 C   0  0  0  0  0  0  0  0  0  0  0  0
    7.4615   50.3231  130.1595 C   0  0  0  0  0  0  0  0  0  0  0  0
    7.4340   50.3544  128.7732 C   0  0  0  0  0  0  0  0  0  0  0  0
    6.8340   51.4953  128.4029 N   0  0  0  0  0  0  0  0  0  0  0  0
    6.5167   52.1194  129.5464 C   0  0  0  0  0  0  0  0  0  0  0  0
    6.8926   51.4169  130.5876 O   0  0  0  0  0  0  0  0  0  0  0  0
    9.7943   51.2493  133.2403 C   0  0  0  0  0  0  0  0  0  0  0  0
    9.5987   50.7213  131.9411 O   0  0  0  0  0  0  0  0  0  0  0  0
    9.6387   45.9740  133.1804 N   0  0  0  0  0  0  0  0  0  0  0  0
    9.8487   46.1314  134.2277 H   0  0  0  0  0  0  0  0  0  0  0  0
    9.8839   44.6804  132.6816 C   0  0  0  0  0  0  0  0  0  0  0  0
   10.3200   43.6348  133.4135 N   0  0  0  0  0  0  0  0  0  0  0  0
   10.4414   42.5723  132.6216 C   0  0  0  0  0  0  0  0  0  0  0  0
   10.0628   43.0022  131.3702 C   0  0  0  0  0  0  0  0  0  0  0  0
    9.7483   44.2493  131.4785 O   0  0  0  0  0  0  0  0  0  0  0  0
   10.0487   42.1422  130.1933 C   0  0  0  0  0  0  0  0  0  0  0  0
   10.0652   42.6974  128.9508 C   0  0  0  0  0  0  0  0  0  0  0  0
   10.0515   41.8636  127.8421 C   0  0  0  0  0  0  0  0  0  0  0  0
   10.0214   40.4858  128.0111 C   0  0  0  0  0  0  0  0  0  0  0  0
   10.0047   39.9254  129.2763 C   0  0  0  0  0  0  0  0  0  0  0  0
   10.0184   40.7542  130.3576 C   0  0  0  0  0  0  0  0  0  0  0  0
 12 13  1  0  0  0
 13  1  1  0  0  0
  1  2  2  0  0  0
  2  3  1  0  0  0
  3 14  1  0  0  0
 14 16  1  0  0  0
 16 17  2  0  0  0
 17 18  1  0  0  0
 18 19  2  0  0  0
 19 20  1  0  0  0
 19 21  1  0  0  0
 21 22  2  0  0  0
 22 23  1  0  0  0
 23 24  2  0  0  0
 24 25  1  0  0  0
 25 26  2  0  0  0
  3  4  2  0  0  0
  4  5  1  0  0  0
  5  6  2  0  0  0
  6  7  1  0  0  0
  7  8  2  0  0  0
  8  9  1  0  0  0
  9 10  2  0  0  0
 10 11  1  0  0  0
  6  1  1  0  0  0
 11  7  1  0  0  0
 20 16  1  0  0  0
 26 21  1  0  0  0
 14 15  1  0  0  0
M  END
> <minimizedAffinity>
11.58293

> <CNNscore>
0.4628231823

> <CNNaffinity>
7.0982694626

> <CNN_VS>
3.2852437496

> <CNNaffinity_variance>
1.7805805206

$$$$
[H]c1nc([H])c(-c2c([H])c([H])c(N([H])c3nc([H])c(-c4c([H])c([H])c([H])c([H])c4[H])o3)c([H])c2OC([H])([H])[H])o1


 26 29  0  0  0  0  0  0  0  0999 V2000
    7.8866   47.9171  128.9770 C   0  0  0  0  0  0  0  0  0  0  0  0
    8.6818   46.7636  129.0650 C   0  0  0  0  0  0  0  0  0  0  0  0
    9.9209   46.7480  129.6441 C   0  0  0  0  0  0  0  0  0  0  0  0
   10.3634   47.9733  130.1562 C   0  0  0  0  0  0  0  0  0  0  0  0
    9.5825   49.1005  130.0685 C   0  0  0  0  0  0  0  0  0  0  0  0
    8.3378   49.1079  129.4847 C   0  0  0  0  0  0  0  0  0  0  0  0
    7.5310   50.3295  129.4081 C   0  0  0  0  0  0  0  0  0  0  0  0
    6.6906   50.7718  130.4190 C   0  0  0  0  0  0  0  0  0  0  0  0
    6.1188   51.9119  130.0043 N   0  0  0  0  0  0  0  0  0  0  0  0
    6.6127   52.1334  128.7776 C   0  0  0  0  0  0  0  0  0  0  0  0
    7.4520   51.1886  128.4289 O   0  0  0  0  0  0  0  0  0  0  0  0
    5.5529   47.3203  129.1025 C   0  0  0  0  0  0  0  0  0  0  0  0
    6.6374   47.8717  128.3780 O   0  0  0  0  0  0  0  0  0  0  0  0
   10.7718   45.6231  129.7654 N   0  0  0  0  0  0  0  0  0  0  0  0
   11.6698   45.6359  129.1661 H   0  0  0  0  0  0  0  0  0  0  0  0
   10.5797   44.4899  130.5787 C   0  0  0  0  0  0  0  0  0  0  0  0
   11.5031   43.5350  130.8121 N   0  0  0  0  0  0  0  0  0  0  0  0
   10.9821   42.6174  131.6228 C   0  0  0  0  0  0  0  0  0  0  0  0
    9.6991   43.0427  131.8819 C   0  0  0  0  0  0  0  0  0  0  0  0
    9.5302   44.1479  131.2370 O   0  0  0  0  0  0  0  0  0  0  0  0
    8.7679   42.3184  132.7382 C   0  0  0  0  0  0  0  0  0  0  0  0
    7.4829   42.1301  132.3313 C   0  0  0  0  0  0  0  0  0  0  0  0
    6.6107   41.4384  133.1593 C   0  0  0  0  0  0  0  0  0  0  0  0
    7.0542   40.9510  134.3813 C   0  0  0  0  0  0  0  0  0  0  0  0
    8.3618   41.1449  134.7912 C   0  0  0  0  0  0  0  0  0  0  0  0
    9.2092   41.8256  133.9698 C   0  0  0  0  0  0  0  0  0  0  0  0
 12 13  1  0  0  0
 13  1  1  0  0  0
  1  2  2  0  0  0
  2  3  1  0  0  0
  3 14  1  0  0  0
 14 16  1  0  0  0
 16 17  2  0  0  0
 17 18  1  0  0  0
 18 19  2  0  0  0
 19 20  1  0  0  0
 19 21  1  0  0  0
 21 22  2  0  0  0
 22 23  1  0  0  0
 23 24  2  0  0  0
 24 25  1  0  0  0
 25 26  2  0  0  0
  3  4  2  0  0  0
  4  5  1  0  0  0
  5  6  2  0  0  0
  6  7  1  0  0  0
  7  8  2  0  0  0
  8  9  1  0  0  0
  9 10  2  0  0  0
 10 11  1  0  0  0
  6  1  1  0  0  0
 11  7  1  0  0  0
 20 16  1  0  0  0
 26 21  1  0  0  0
 14 15  1  0  0  0
M  END
> <minimizedAffinity>
7.07726

> <CNNscore>
0.4515810311

> <CNNaffinity>
6.9338798523

> <CNN_VS>
3.1312086582

> <CNNaffinity_variance>
1.2722597122

$$$$
[H]c1nc([H])c(-c2c([H])c([H])c(N([H])c3nc([H])c(-c4c([H])c([H])c([H])c([H])c4[H])o3)c([H])c2OC([H])([H])[H])o1


 26 29  0  0  0  0  0  0  0  0999 V2000
    8.0887   48.3696  130.9938 C   0  0  0  0  0  0  0  0  0  0  0  0
    8.8253   47.5576  131.8706 C   0  0  0  0  0  0  0  0  0  0  0  0
    9.7792   48.0439  132.7220 C   0  0  0  0  0  0  0  0  0  0  0  0
    9.9858   49.4273  132.6702 C   0  0  0  0  0  0  0  0  0  0  0  0
    9.2630   50.2193  131.8109 C   0  0  0  0  0  0  0  0  0  0  0  0
    8.3057   49.7227  130.9580 C   0  0  0  0  0  0  0  0  0  0  0  0
    7.5527   50.5968  130.0537 C   0  0  0  0  0  0  0  0  0  0  0  0
    7.5765   50.4919  128.6709 C   0  0  0  0  0  0  0  0  0  0  0  0
    6.7757   51.4470  128.1756 N   0  0  0  0  0  0  0  0  0  0  0  0
    6.2929   52.0976  129.2440 C   0  0  0  0  0  0  0  0  0  0  0  0
    6.7589   51.5871  130.3580 O   0  0  0  0  0  0  0  0  0  0  0  0
    6.9500   46.4153  130.1559 C   0  0  0  0  0  0  0  0  0  0  0  0
    7.1337   47.8193  130.1532 O   0  0  0  0  0  0  0  0  0  0  0  0
   10.5555   47.2826  133.6285 N   0  0  0  0  0  0  0  0  0  0  0  0
   10.9147   47.8022  134.5041 H   0  0  0  0  0  0  0  0  0  0  0  0
   10.9123   45.9251  133.5176 C   0  0  0  0  0  0  0  0  0  0  0  0
   11.7620   45.2750  134.3388 N   0  0  0  0  0  0  0  0  0  0  0  0
   11.8660   44.0094  133.9410 C   0  0  0  0  0  0  0  0  0  0  0  0
   11.0464   43.9023  132.8406 C   0  0  0  0  0  0  0  0  0  0  0  0
   10.5182   45.0642  132.6485 O   0  0  0  0  0  0  0  0  0  0  0  0
   10.8655   42.6668  132.0884 C   0  0  0  0  0  0  0  0  0  0  0  0
   11.4427   41.5162  132.5304 C   0  0  0  0  0  0  0  0  0  0  0  0
   11.2598   40.3499  131.8018 C   0  0  0  0  0  0  0  0  0  0  0  0
   10.4974   40.3694  130.6416 C   0  0  0  0  0  0  0  0  0  0  0  0
    9.9123   41.5416  130.1957 C   0  0  0  0  0  0  0  0  0  0  0  0
   10.0988   42.6808  130.9194 C   0  0  0  0  0  0  0  0  0  0  0  0
 12 13  1  0  0  0
 13  1  1  0  0  0
  1  2  2  0  0  0
  2  3  1  0  0  0
  3 14  1  0  0  0
 14 16  1  0  0  0
 16 17  2  0  0  0
 17 18  1  0  0  0
 18 19  2  0  0  0
 19 20  1  0  0  0
 19 21  1  0  0  0
 21 22  2  0  0  0
 22 23  1  0  0  0
 23 24  2  0  0  0
 24 25  1  0  0  0
 25 26  2  0  0  0
  3  4  2  0  0  0
  4  5  1  0  0  0
  5  6  2  0  0  0
  6  7  1  0  0  0
  7  8  2  0  0  0
  8  9  1  0  0  0
  9 10  2  0  0  0
 10 11  1  0  0  0
  6  1  1  0  0  0
 11  7  1  0  0  0
 20 16  1  0  0  0
 26 21  1  0  0  0
 14 15  1  0  0  0
M  END
> <minimizedAffinity>
3.54038

> <CNNscore>
0.4488827288

> <CNNaffinity>
7.2991347313

> <CNN_VS>
3.2764554024

> <CNNaffinity_variance>
1.7048966885

$$$$
[H]c1nc([H])c(-c2c([H])c([H])c(N([H])c3nc([H])c(-c4c([H])c([H])c([H])c([H])c4[H])o3)c([H])c2OC([H])([H])[H])o1


 26 29  0  0  0  0  0  0  0  0999 V2000
    6.5291   47.7767  129.1238 C   0  0  0  0  0  0  0  0  0  0  0  0
    6.8488   46.4099  129.1052 C   0  0  0  0  0  0  0  0  0  0  0  0
    8.1328   45.9393  129.0749 C   0  0  0  0  0  0  0  0  0  0  0  0
    9.1340   46.9174  129.0632 C   0  0  0  0  0  0  0  0  0  0  0  0
    8.8177   48.2544  129.0816 C   0  0  0  0  0  0  0  0  0  0  0  0
    7.5242   48.7195  129.1120 C   0  0  0  0  0  0  0  0  0  0  0  0
    7.2224   50.1539  129.1309 C   0  0  0  0  0  0  0  0  0  0  0  0
    6.7904   50.8435  130.2541 C   0  0  0  0  0  0  0  0  0  0  0  0
    6.6154   52.1260  129.9028 N   0  0  0  0  0  0  0  0  0  0  0  0
    6.9376   52.1873  128.6027 C   0  0  0  0  0  0  0  0  0  0  0  0
    7.2977   51.0110  128.1496 O   0  0  0  0  0  0  0  0  0  0  0  0
    4.2179   47.2930  129.6160 C   0  0  0  0  0  0  0  0  0  0  0  0
    5.2076   48.1942  129.1543 O   0  0  0  0  0  0  0  0  0  0  0  0
    8.5231   44.5787  129.0549 N   0  0  0  0  0  0  0  0  0  0  0  0
    8.2214   44.0073  128.1899 H   0  0  0  0  0  0  0  0  0  0  0  0
    9.2600   43.8864  130.0348 C   0  0  0  0  0  0  0  0  0  0  0  0
    9.6037   42.5837  129.9730 N   0  0  0  0  0  0  0  0  0  0  0  0
   10.2937   42.2654  131.0654 C   0  0  0  0  0  0  0  0  0  0  0  0
   10.3634   43.4235  131.8057 C   0  0  0  0  0  0  0  0  0  0  0  0
    9.7357   44.3348  131.1414 O   0  0  0  0  0  0  0  0  0  0  0  0
   11.0408   43.5168  133.0931 C   0  0  0  0  0  0  0  0  0  0  0  0
   10.3449   43.2898  134.2405 C   0  0  0  0  0  0  0  0  0  0  0  0
   11.0059   43.3830  135.4567 C   0  0  0  0  0  0  0  0  0  0  0  0
   12.3564   43.7036  135.4891 C   0  0  0  0  0  0  0  0  0  0  0  0
   13.0602   43.9337  134.3199 C   0  0  0  0  0  0  0  0  0  0  0  0
   12.4005   43.8393  133.1316 C   0  0  0  0  0  0  0  0  0  0  0  0
 12 13  1  0  0  0
 13  1  1  0  0  0
  1  2  2  0  0  0
  2  3  1  0  0  0
  3 14  1  0  0  0
 14 16  1  0  0  0
 16 17  2  0  0  0
 17 18  1  0  0  0
 18 19  2  0  0  0
 19 20  1  0  0  0
 19 21  1  0  0  0
 21 22  2  0  0  0
 22 23  1  0  0  0
 23 24  2  0  0  0
 24 25  1  0  0  0
 25 26  2  0  0  0
  3  4  2  0  0  0
  4  5  1  0  0  0
  5  6  2  0  0  0
  6  7  1  0  0  0
  7  8  2  0  0  0
  8  9  1  0  0  0
  9 10  2  0  0  0
 10 11  1  0  0  0
  6  1  1  0  0  0
 11  7  1  0  0  0
 20 16  1  0  0  0
 26 21  1  0  0  0
 14 15  1  0  0  0
M  END
> <minimizedAffinity>
0.86825

> <CNNscore>
0.4339108169

> <CNNaffinity>
7.0829834938

> <CNN_VS>
3.0733830929

> <CNNaffinity_variance>
1.0463738441

$$$$
[H]c1nc([H])c(-c2c([H])c([H])c(N([H])c3nc([H])c(-c4c([H])c([H])c([H])c([H])c4[H])o3)c([H])c2OC([H])([H])[H])o1


 26 29  0  0  0  0  0  0  0  0999 V2000
    9.5415   48.8406  130.6378 C   0  0  0  0  0  0  0  0  0  0  0  0
   10.3731   47.7213  130.8002 C   0  0  0  0  0  0  0  0  0  0  0  0
   10.2209   46.5630  130.0887 C   0  0  0  0  0  0  0  0  0  0  0  0
    9.1662   46.5541  129.1684 C   0  0  0  0  0  0  0  0  0  0  0  0
    8.3542   47.6514  129.0117 C   0  0  0  0  0  0  0  0  0  0  0  0
    8.5137   48.8122  129.7310 C   0  0  0  0  0  0  0  0  0  0  0  0
    7.6284   49.9647  129.5385 C   0  0  0  0  0  0  0  0  0  0  0  0
    6.5735   50.2849  130.3802 C   0  0  0  0  0  0  0  0  0  0  0  0
    5.9900   51.3927  129.8993 N   0  0  0  0  0  0  0  0  0  0  0  0
    6.6871   51.7150  128.8002 C   0  0  0  0  0  0  0  0  0  0  0  0
    7.6601   50.8617  128.5911 O   0  0  0  0  0  0  0  0  0  0  0  0
    9.7626   49.8858  132.8003 C   0  0  0  0  0  0  0  0  0  0  0  0
    9.7446   49.9882  131.3882 O   0  0  0  0  0  0  0  0  0  0  0  0
   11.0217   45.4013  130.2033 N   0  0  0  0  0  0  0  0  0  0  0  0
   11.9300   45.3872  129.6197 H   0  0  0  0  0  0  0  0  0  0  0  0
   10.7680   44.2627  130.9917 C   0  0  0  0  0  0  0  0  0  0  0  0
   11.6576   43.2827  131.2509 N   0  0  0  0  0  0  0  0  0  0  0  0
   11.0806   42.3676  132.0258 C   0  0  0  0  0  0  0  0  0  0  0  0
    9.7982   42.8207  132.2359 C   0  0  0  0  0  0  0  0  0  0  0  0
    9.6834   43.9380  131.5999 O   0  0  0  0  0  0  0  0  0  0  0  0
    8.8142   42.1083  133.0416 C   0  0  0  0  0  0  0  0  0  0  0  0
    9.2022   41.4889  134.1898 C   0  0  0  0  0  0  0  0  0  0  0  0
    8.2521   40.8157  134.9439 C   0  0  0  0  0  0  0  0  0  0  0  0
    6.9294   40.7818  134.5231 C   0  0  0  0  0  0  0  0  0  0  0  0
    6.5392   41.4130  133.3549 C   0  0  0  0  0  0  0  0  0  0  0  0
    7.4810   42.0710  132.6225 C   0  0  0  0  0  0  0  0  0  0  0  0
 12 13  1  0  0  0
 13  1  1  0  0  0
  1  2  2  0  0  0
  2  3  1  0  0  0
  3 14  1  0  0  0
 14 16  1  0  0  0
 16 17  2  0  0  0
 17 18  1  0  0  0
 18 19  2  0  0  0
 19 20  1  0  0  0
 19 21  1  0  0  0
 21 22  2  0  0  0
 22 23  1  0  0  0
 23 24  2  0  0  0
 24 25  1  0  0  0
 25 26  2  0  0  0
  3  4  2  0  0  0
  4  5  1  0  0  0
  5  6  2  0  0  0
  6  7  1  0  0  0
  7  8  2  0  0  0
  8  9  1  0  0  0
  9 10  2  0  0  0
 10 11  1  0  0  0
  6  1  1  0  0  0
 11  7  1  0  0  0
 20 16  1  0  0  0
 26 21  1  0  0  0
 14 15  1  0  0  0
M  END
> <minimizedAffinity>
7.08191

> <CNNscore>
0.4138233364

> <CNNaffinity>
6.9787168503

> <CNN_VS>
2.8879559040

> <CNNaffinity_variance>
1.1648776531

$$$$
[H]c1nc([H])c(-c2c([H])c([H])c(N([H])c3nc([H])c(-c4c([H])c([H])c([H])c([H])c4[H])o3)c([H])c2OC([H])([H])[H])o1


 26 29  0  0  0  0  0  0  0  0999 V2000
    9.0566   45.0598  131.0191 C   0  0  0  0  0  0  0  0  0  0  0  0
    8.1485   45.7409  130.1933 C   0  0  0  0  0  0  0  0  0  0  0  0
    7.9078   47.0840  130.2890 C   0  0  0  0  0  0  0  0  0  0  0  0
    8.6332   47.7583  131.2783 C   0  0  0  0  0  0  0  0  0  0  0  0
    9.5214   47.0887  132.0849 C   0  0  0  0  0  0  0  0  0  0  0  0
    9.7577   45.7381  131.9824 C   0  0  0  0  0  0  0  0  0  0  0  0
   10.7129   45.0551  132.8599 C   0  0  0  0  0  0  0  0  0  0  0  0
   12.0386   44.8151  132.5302 C   0  0  0  0  0  0  0  0  0  0  0  0
   12.6063   44.1754  133.5633 N   0  0  0  0  0  0  0  0  0  0  0  0
   11.6353   44.0431  134.4785 C   0  0  0  0  0  0  0  0  0  0  0  0
   10.5117   44.5684  134.0540 O   0  0  0  0  0  0  0  0  0  0  0  0
    9.0825   43.1112  129.5978 C   0  0  0  0  0  0  0  0  0  0  0  0
    9.2590   43.6961  130.8752 O   0  0  0  0  0  0  0  0  0  0  0  0
    7.0082   47.8301  129.4903 N   0  0  0  0  0  0  0  0  0  0  0  0
    6.2857   47.2609  128.9247 H   0  0  0  0  0  0  0  0  0  0  0  0
    6.9487   49.2298  129.3499 C   0  0  0  0  0  0  0  0  0  0  0  0
    6.5639   50.0920  130.3131 N   0  0  0  0  0  0  0  0  0  0  0  0
    6.6285   51.3323  129.8353 C   0  0  0  0  0  0  0  0  0  0  0  0
    7.0689   51.2032  128.5378 C   0  0  0  0  0  0  0  0  0  0  0  0
    7.2367   49.9421  128.3197 O   0  0  0  0  0  0  0  0  0  0  0  0
    7.2802   52.3341  127.6426 C   0  0  0  0  0  0  0  0  0  0  0  0
    7.0201   53.5973  128.0773 C   0  0  0  0  0  0  0  0  0  0  0  0
    7.2270   54.6616  127.2118 C   0  0  0  0  0  0  0  0  0  0  0  0
    7.6925   54.4282  125.9247 C   0  0  0  0  0  0  0  0  0  0  0  0
    7.9557   53.1421  125.4868 C   0  0  0  0  0  0  0  0  0  0  0  0
    7.7487   52.1048  126.3456 C   0  0  0  0  0  0  0  0  0  0  0  0
 12 13  1  0  0  0
 13  1  1  0  0  0
  1  2  2  0  0  0
  2  3  1  0  0  0
  3 14  1  0  0  0
 14 16  1  0  0  0
 16 17  2  0  0  0
 17 18  1  0  0  0
 18 19  2  0  0  0
 19 20  1  0  0  0
 19 21  1  0  0  0
 21 22  2  0  0  0
 22 23  1  0  0  0
 23 24  2  0  0  0
 24 25  1  0  0  0
 25 26  2  0  0  0
  3  4  2  0  0  0
  4  5  1  0  0  0
  5  6  2  0  0  0
  6  7  1  0  0  0
  7  8  2  0  0  0
  8  9  1  0  0  0
  9 10  2  0  0  0
 10 11  1  0  0  0
  6  1  1  0  0  0
 11  7  1  0  0  0
 20 16  1  0  0  0
 26 21  1  0  0  0
 14 15  1  0  0  0
M  END
> <minimizedAffinity>
2.78641

> <CNNscore>
0.4125128388

> <CNNaffinity>
6.6921057701

> <CNN_VS>
2.7605795860

> <CNNaffinity_variance>
0.4899679720

$$$$
[H]c1nc([H])c(-c2c([H])c([H])c(N([H])c3nc([H])c(-c4c([H])c([H])c([H])c([H])c4[H])o3)c([H])c2OC([H])([H])[H])o1


 26 29  0  0  0  0  0  0  0  0999 V2000
   10.7954   48.7294  134.2309 C   0  0  0  0  0  0  0  0  0  0  0  0
    9.6536   48.3170  133.5259 C   0  0  0  0  0  0  0  0  0  0  0  0
    9.1841   47.0323  133.5423 C   0  0  0  0  0  0  0  0  0  0  0  0
    9.9212   46.1301  134.3183 C   0  0  0  0  0  0  0  0  0  0  0  0
   11.0383   46.5370  135.0072 C   0  0  0  0  0  0  0  0  0  0  0  0
   11.5039   47.8305  134.9855 C   0  0  0  0  0  0  0  0  0  0  0  0
   12.6999   48.2305  135.7328 C   0  0  0  0  0  0  0  0  0  0  0  0
   12.7339   49.2727  136.6474 C   0  0  0  0  0  0  0  0  0  0  0  0
   13.9820   49.3494  137.1321 N   0  0  0  0  0  0  0  0  0  0  0  0
   14.6650   48.3740  136.5156 C   0  0  0  0  0  0  0  0  0  0  0  0
   13.8968   47.7123  135.6846 O   0  0  0  0  0  0  0  0  0  0  0  0
   10.3555   51.0244  133.6334 C   0  0  0  0  0  0  0  0  0  0  0  0
   11.2238   50.0465  134.1761 O   0  0  0  0  0  0  0  0  0  0  0  0
    8.0428   46.5516  132.8564 N   0  0  0  0  0  0  0  0  0  0  0  0
    7.0961   46.6696  133.3620 H   0  0  0  0  0  0  0  0  0  0  0  0
    8.0025   45.9373  131.5902 C   0  0  0  0  0  0  0  0  0  0  0  0
    6.9076   45.8381  130.8088 N   0  0  0  0  0  0  0  0  0  0  0  0
    7.2322   45.1997  129.6873 C   0  0  0  0  0  0  0  0  0  0  0  0
    8.5720   44.9079  129.8058 C   0  0  0  0  0  0  0  0  0  0  0  0
    8.9595   45.3697  130.9471 O   0  0  0  0  0  0  0  0  0  0  0  0
    9.3363   44.2036  128.7837 C   0  0  0  0  0  0  0  0  0  0  0  0
   10.1902   44.8963  127.9816 C   0  0  0  0  0  0  0  0  0  0  0  0
   10.9094   44.2094  127.0143 C   0  0  0  0  0  0  0  0  0  0  0  0
   10.7515   42.8369  126.8769 C   0  0  0  0  0  0  0  0  0  0  0  0
    9.8821   42.1364  127.6947 C   0  0  0  0  0  0  0  0  0  0  0  0
    9.1811   42.8216  128.6410 C   0  0  0  0  0  0  0  0  0  0  0  0
 12 13  1  0  0  0
 13  1  1  0  0  0
  1  2  2  0  0  0
  2  3  1  0  0  0
  3 14  1  0  0  0
 14 16  1  0  0  0
 16 17  2  0  0  0
 17 18  1  0  0  0
 18 19  2  0  0  0
 19 20  1  0  0  0
 19 21  1  0  0  0
 21 22  2  0  0  0
 22 23  1  0  0  0
 23 24  2  0  0  0
 24 25  1  0  0  0
 25 26  2  0  0  0
  3  4  2  0  0  0
  4  5  1  0  0  0
  5  6  2  0  0  0
  6  7  1  0  0  0
  7  8  2  0  0  0
  8  9  1  0  0  0
  9 10  2  0  0  0
 10 11  1  0  0  0
  6  1  1  0  0  0
 11  7  1  0  0  0
 20 16  1  0  0  0
 26 21  1  0  0  0
 14 15  1  0  0  0
M  END
> <minimizedAffinity>
18.94546

> <CNNscore>
0.3990439475

> <CNNaffinity>
6.5325660706

> <CNN_VS>
2.6067810059

> <CNNaffinity_variance>
1.6001666784

$$$$
[H]c1nc([H])c(-c2c([H])c([H])c(N([H])c3nc([H])c(-c4c([H])c([H])c([H])c([H])c4[H])o3)c([H])c2OC([H])([H])[H])o1


 26 29  0  0  0  0  0  0  0  0999 V2000
    8.7150   45.6546  131.9699 C   0  0  0  0  0  0  0  0  0  0  0  0
    7.7637   46.4816  131.3519 C   0  0  0  0  0  0  0  0  0  0  0  0
    7.8970   46.9564  130.0760 C   0  0  0  0  0  0  0  0  0  0  0  0
    9.0607   46.5638  129.4043 C   0  0  0  0  0  0  0  0  0  0  0  0
    9.9897   45.7541  130.0120 C   0  0  0  0  0  0  0  0  0  0  0  0
    9.8484   45.2809  131.2952 C   0  0  0  0  0  0  0  0  0  0  0  0
   10.8598   44.4184  131.9132 C   0  0  0  0  0  0  0  0  0  0  0  0
   10.8339   43.0324  131.8674 C   0  0  0  0  0  0  0  0  0  0  0  0
   11.9076   42.5822  132.5332 N   0  0  0  0  0  0  0  0  0  0  0  0
   12.5490   43.6796  132.9600 C   0  0  0  0  0  0  0  0  0  0  0  0
   11.9207   44.7684  132.5879 O   0  0  0  0  0  0  0  0  0  0  0  0
    8.8406   46.0685  134.3428 C   0  0  0  0  0  0  0  0  0  0  0  0
    8.5251   45.2038  133.2669 O   0  0  0  0  0  0  0  0  0  0  0  0
    6.9784   47.7914  129.3956 N   0  0  0  0  0  0  0  0  0  0  0  0
    6.1660   47.2941  128.8871 H   0  0  0  0  0  0  0  0  0  0  0  0
    7.0042   49.1963  129.3068 C   0  0  0  0  0  0  0  0  0  0  0  0
    6.8376   50.0439  130.3427 N   0  0  0  0  0  0  0  0  0  0  0  0
    6.9218   51.2949  129.8968 C   0  0  0  0  0  0  0  0  0  0  0  0
    7.1475   51.1875  128.5434 C   0  0  0  0  0  0  0  0  0  0  0  0
    7.1841   49.9276  128.2654 O   0  0  0  0  0  0  0  0  0  0  0  0
    7.3042   52.3360  127.6594 C   0  0  0  0  0  0  0  0  0  0  0  0
    6.9775   53.5801  128.1041 C   0  0  0  0  0  0  0  0  0  0  0  0
    7.1332   54.6615  127.2491 C   0  0  0  0  0  0  0  0  0  0  0  0
    7.6157   54.4641  125.9622 C   0  0  0  0  0  0  0  0  0  0  0  0
    7.9466   53.1973  125.5141 C   0  0  0  0  0  0  0  0  0  0  0  0
    7.7896   52.1430  126.3627 C   0  0  0  0  0  0  0  0  0  0  0  0
 12 13  1  0  0  0
 13  1  1  0  0  0
  1  2  2  0  0  0
  2  3  1  0  0  0
  3 14  1  0  0  0
 14 16  1  0  0  0
 16 17  2  0  0  0
 17 18  1  0  0  0
 18 19  2  0  0  0
 19 20  1  0  0  0
 19 21  1  0  0  0
 21 22  2  0  0  0
 22 23  1  0  0  0
 23 24  2  0  0  0
 24 25  1  0  0  0
 25 26  2  0  0  0
  3  4  2  0  0  0
  4  5  1  0  0  0
  5  6  2  0  0  0
  6  7  1  0  0  0
  7  8  2  0  0  0
  8  9  1  0  0  0
  9 10  2  0  0  0
 10 11  1  0  0  0
  6  1  1  0  0  0
 11  7  1  0  0  0
 20 16  1  0  0  0
 26 21  1  0  0  0
 14 15  1  0  0  0
M  END
> <minimizedAffinity>
2.97660

> <CNNscore>
0.3902716041

> <CNNaffinity>
6.6279997826

> <CNN_VS>
2.5867199898

> <CNNaffinity_variance>
0.4783453345

$$$$
[H]c1c([H])c([H])c2c(c1[H])c1c3c(c4c5c([H])c([H])c([H])c([H])c5n5c4c1n2[C@@]1(C([H])([H])[H])O[C@]5([H])C([H])([H])[C@@]([H])(N([H])C([H])([H])[H])[C@@]1([H])OC([H])([H])[H])C(=O)N([H])C3([H])[H]


 37 44  0  0  0  0  0  0  0  0999 V2000
   10.4408   44.6901  133.9187 C   0  0  0  0  0  0  0  0  0  0  0  0
   10.7607   46.1057  134.1109 C   0  0  0  0  0  0  0  0  0  0  0  0
   11.5341   46.6858  132.9938 C   0  0  0  0  0  0  0  0  0  0  0  0
   12.1262   45.9406  132.1001 O   0  0  0  0  0  0  0  0  0  0  0  0
   11.5981   44.7336  131.6497 C   0  0  0  0  0  0  0  0  0  0  0  0
   12.8532   44.0773  131.0592 C   0  0  0  0  0  0  0  0  0  0  0  0
   11.0991   43.9615  132.7810 C   0  0  0  0  0  0  0  0  0  0  0  0
   10.6082   45.0384  130.6017 N   0  0  0  0  0  0  0  0  0  0  0  0
   10.2224   44.2601  129.5923 C   0  0  0  0  0  0  0  0  0  0  0  0
   10.5526   42.9857  129.2234 C   0  0  0  0  0  0  0  0  0  0  0  0
    9.9996   42.3876  128.1133 C   0  0  0  0  0  0  0  0  0  0  0  0
    9.0723   43.0627  127.3134 C   0  0  0  0  0  0  0  0  0  0  0  0
    8.7406   44.3298  127.6766 C   0  0  0  0  0  0  0  0  0  0  0  0
    9.2973   44.9144  128.7831 C   0  0  0  0  0  0  0  0  0  0  0  0
    9.1161   46.1533  129.3387 C   0  0  0  0  0  0  0  0  0  0  0  0
    8.3265   47.2524  128.9936 C   0  0  0  0  0  0  0  0  0  0  0  0
    7.3906   47.4328  127.8603 C   0  0  0  0  0  0  0  0  0  0  0  0
    6.8428   48.7441  127.9743 N   0  0  0  0  0  0  0  0  0  0  0  0
    7.4107   49.3656  129.1319 C   0  0  0  0  0  0  0  0  0  0  0  0
    7.0993   50.5136  129.4550 O   0  0  0  0  0  0  0  0  0  0  0  0
    8.3269   48.4244  129.7483 C   0  0  0  0  0  0  0  0  0  0  0  0
    9.1437   48.4513  130.8561 C   0  0  0  0  0  0  0  0  0  0  0  0
    9.4099   49.3883  131.8381 C   0  0  0  0  0  0  0  0  0  0  0  0
    8.9537   50.6579  132.0564 C   0  0  0  0  0  0  0  0  0  0  0  0
    9.4159   51.3613  133.1514 C   0  0  0  0  0  0  0  0  0  0  0  0
   10.3220   50.8012  134.0152 C   0  0  0  0  0  0  0  0  0  0  0  0
   10.7907   49.5225  133.8078 C   0  0  0  0  0  0  0  0  0  0  0  0
   10.3273   48.8344  132.7213 C   0  0  0  0  0  0  0  0  0  0  0  0
   10.6157   47.6178  132.3090 N   0  0  0  0  0  0  0  0  0  0  0  0
    9.9349   47.3398  131.1950 C   0  0  0  0  0  0  0  0  0  0  0  0
    9.9220   46.1854  130.4309 C   0  0  0  0  0  0  0  0  0  0  0  0
    6.1459   49.1569  127.3108 H   0  0  0  0  0  0  0  0  0  0  0  0
    8.3499   45.8223  134.2448 C   0  0  0  0  0  0  0  0  0  0  0  0
    8.9674   44.5780  133.8247 N   0  0  0  0  0  0  0  0  0  0  0  0
    8.6669   44.4315  132.8373 H   0  0  0  0  0  0  0  0  0  0  0  0
   10.2104   42.9314  132.4818 O   0  0  0  0  0  0  0  0  0  0  0  0
   10.8418   41.7190  132.2327 C   0  0  0  0  0  0  0  0  0  0  0  0
 33 34  1  0  0  0
 34  1  1  0  0  0
  1  2  1  0  0  0
  2  3  1  0  0  0
  3  4  1  0  0  0
  4  5  1  0  0  0
  5  6  1  0  0  0
  5  7  1  0  0  0
  7 36  1  0  0  0
 36 37  1  0  0  0
  5  8  1  0  0  0
  8  9  1  0  0  0
  9 10  2  0  0  0
 10 11  1  0  0  0
 11 12  2  0  0  0
 12 13  1  0  0  0
 13 14  2  0  0  0
 14 15  1  0  0  0
 15 16  2  0  0  0
 16 17  1  0  0  0
 17 18  1  0  0  0
 18 19  1  0  0  0
 19 20  2  0  0  0
 19 21  1  0  0  0
 21 22  2  0  0  0
 22 23  1  0  0  0
 23 24  2  0  0  0
 24 25  1  0  0  0
 25 26  2  0  0  0
 26 27  1  0  0  0
 27 28  2  0  0  0
 28 29  1  0  0  0
 29 30  1  0  0  0
 30 31  2  0  0  0
  7  1  1  0  0  0
 31  8  1  0  0  0
 29  3  1  0  0  0
 14  9  1  0  0  0
 31 15  1  0  0  0
 21 16  1  0  0  0
 30 22  1  0  0  0
 28 23  1  0  0  0
 34 35  1  0  0  0
 18 32  1  0  0  0
M  END
> <minimizedAffinity>
2.61722

> <CNNscore>
0.5446680188

> <CNNaffinity>
7.7957658768

> <CNN_VS>
4.2461042404

> <CNNaffinity_variance>
0.1306505501

$$$$
[H]c1c([H])c([H])c2c(c1[H])c1c3c(c4c5c([H])c([H])c([H])c([H])c5n5c4c1n2[C@@]1(C([H])([H])[H])O[C@]5([H])C([H])([H])[C@@]([H])(N([H])C([H])([H])[H])[C@@]1([H])OC([H])([H])[H])C(=O)N([H])C3([H])[H]


 37 44  0  0  0  0  0  0  0  0999 V2000
   10.8296   43.6475  133.9174 C   0  0  0  0  0  0  0  0  0  0  0  0
   10.4556   44.8687  134.6331 C   0  0  0  0  0  0  0  0  0  0  0  0
   11.0786   46.0862  134.0744 C   0  0  0  0  0  0  0  0  0  0  0  0
   12.0850   46.0313  133.2443 O   0  0  0  0  0  0  0  0  0  0  0  0
   12.2294   45.0240  132.2940 C   0  0  0  0  0  0  0  0  0  0  0  0
   13.7273   45.1407  131.9821 C   0  0  0  0  0  0  0  0  0  0  0  0
   11.9299   43.7311  132.8972 C   0  0  0  0  0  0  0  0  0  0  0  0
   11.4080   45.3862  131.1256 N   0  0  0  0  0  0  0  0  0  0  0  0
   11.5878   45.0224  129.8572 C   0  0  0  0  0  0  0  0  0  0  0  0
   12.5035   44.2133  129.2440 C   0  0  0  0  0  0  0  0  0  0  0  0
   12.4746   43.9872  127.8860 C   0  0  0  0  0  0  0  0  0  0  0  0
   11.5019   44.5789  127.0741 C   0  0  0  0  0  0  0  0  0  0  0  0
   10.5890   45.3838  127.6795 C   0  0  0  0  0  0  0  0  0  0  0  0
   10.6279   45.6011  129.0313 C   0  0  0  0  0  0  0  0  0  0  0  0
    9.8261   46.3524  129.8494 C   0  0  0  0  0  0  0  0  0  0  0  0
    8.7084   47.1576  129.6196 C   0  0  0  0  0  0  0  0  0  0  0  0
    8.0042   47.4688  128.3546 C   0  0  0  0  0  0  0  0  0  0  0  0
    6.9255   48.3423  128.6799 N   0  0  0  0  0  0  0  0  0  0  0  0
    6.9489   48.5733  130.0923 C   0  0  0  0  0  0  0  0  0  0  0  0
    6.1133   49.3012  130.6319 O   0  0  0  0  0  0  0  0  0  0  0  0
    8.0609   47.8302  130.6548 C   0  0  0  0  0  0  0  0  0  0  0  0
    8.5736   47.6644  131.9216 C   0  0  0  0  0  0  0  0  0  0  0  0
    8.2236   48.1333  133.1749 C   0  0  0  0  0  0  0  0  0  0  0  0
    7.2255   48.9588  133.6105 C   0  0  0  0  0  0  0  0  0  0  0  0
    7.1309   49.2494  134.9574 C   0  0  0  0  0  0  0  0  0  0  0  0
    8.0231   48.7208  135.8549 C   0  0  0  0  0  0  0  0  0  0  0  0
    9.0342   47.8872  135.4302 C   0  0  0  0  0  0  0  0  0  0  0  0
    9.1195   47.6056  134.0952 C   0  0  0  0  0  0  0  0  0  0  0  0
    9.9807   46.8493  133.4473 N   0  0  0  0  0  0  0  0  0  0  0  0
    9.6992   46.8518  132.1425 C   0  0  0  0  0  0  0  0  0  0  0  0
   10.3296   46.1938  131.1003 C   0  0  0  0  0  0  0  0  0  0  0  0
    6.2470   48.7333  127.9848 H   0  0  0  0  0  0  0  0  0  0  0  0
    8.4555   43.9095  133.6832 C   0  0  0  0  0  0  0  0  0  0  0  0
    9.5975   43.0958  133.3093 N   0  0  0  0  0  0  0  0  0  0  0  0
    9.6454   43.1354  132.2687 H   0  0  0  0  0  0  0  0  0  0  0  0
   11.6523   42.6882  132.0164 O   0  0  0  0  0  0  0  0  0  0  0  0
   12.7312   42.3533  131.2075 C   0  0  0  0  0  0  0  0  0  0  0  0
 33 34  1  0  0  0
 34  1  1  0  0  0
  1  2  1  0  0  0
  2  3  1  0  0  0
  3  4  1  0  0  0
  4  5  1  0  0  0
  5  6  1  0  0  0
  5  7  1  0  0  0
  7 36  1  0  0  0
 36 37  1  0  0  0
  5  8  1  0  0  0
  8  9  1  0  0  0
  9 10  2  0  0  0
 10 11  1  0  0  0
 11 12  2  0  0  0
 12 13  1  0  0  0
 13 14  2  0  0  0
 14 15  1  0  0  0
 15 16  2  0  0  0
 16 17  1  0  0  0
 17 18  1  0  0  0
 18 19  1  0  0  0
 19 20  2  0  0  0
 19 21  1  0  0  0
 21 22  2  0  0  0
 22 23  1  0  0  0
 23 24  2  0  0  0
 24 25  1  0  0  0
 25 26  2  0  0  0
 26 27  1  0  0  0
 27 28  2  0  0  0
 28 29  1  0  0  0
 29 30  1  0  0  0
 30 31  2  0  0  0
  7  1  1  0  0  0
 31  8  1  0  0  0
 29  3  1  0  0  0
 14  9  1  0  0  0
 31 15  1  0  0  0
 21 16  1  0  0  0
 30 22  1  0  0  0
 28 23  1  0  0  0
 34 35  1  0  0  0
 18 32  1  0  0  0
M  END
> <minimizedAffinity>
15.92480

> <CNNscore>
0.4204417169

> <CNNaffinity>
7.5391945839

> <CNN_VS>
3.1697919369

> <CNNaffinity_variance>
0.4587084353

$$$$
[H]c1c([H])c([H])c2c(c1[H])c1c3c(c4c5c([H])c([H])c([H])c([H])c5n5c4c1n2[C@@]1(C([H])([H])[H])O[C@]5([H])C([H])([H])[C@@]([H])(N([H])C([H])([H])[H])[C@@]1([H])OC([H])([H])[H])C(=O)N([H])C3([H])[H]


 37 44  0  0  0  0  0  0  0  0999 V2000
   10.2158   42.8382  133.3299 C   0  0  0  0  0  0  0  0  0  0  0  0
   10.1963   43.9698  134.2585 C   0  0  0  0  0  0  0  0  0  0  0  0
   11.0789   45.0797  133.8441 C   0  0  0  0  0  0  0  0  0  0  0  0
   11.9984   44.9296  132.9294 O   0  0  0  0  0  0  0  0  0  0  0  0
   11.8389   44.0982  131.8239 C   0  0  0  0  0  0  0  0  0  0  0  0
   13.3012   43.9035  131.4017 C   0  0  0  0  0  0  0  0  0  0  0  0
   11.2519   42.8307  132.2413 C   0  0  0  0  0  0  0  0  0  0  0  0
   11.0808   44.8449  130.8046 N   0  0  0  0  0  0  0  0  0  0  0  0
   11.1026   44.6748  129.4840 C   0  0  0  0  0  0  0  0  0  0  0  0
   11.7545   43.7886  128.6724 C   0  0  0  0  0  0  0  0  0  0  0  0
   11.6051   43.8158  127.3039 C   0  0  0  0  0  0  0  0  0  0  0  0
   10.7756   44.7561  126.6847 C   0  0  0  0  0  0  0  0  0  0  0  0
   10.1250   45.6389  127.4877 C   0  0  0  0  0  0  0  0  0  0  0  0
   10.2816   45.6021  128.8479 C   0  0  0  0  0  0  0  0  0  0  0  0
    9.7349   46.3701  129.8418 C   0  0  0  0  0  0  0  0  0  0  0  0
    8.8468   47.4479  129.8416 C   0  0  0  0  0  0  0  0  0  0  0  0
    8.1846   48.1345  128.7090 C   0  0  0  0  0  0  0  0  0  0  0  0
    7.3777   49.1716  129.2620 N   0  0  0  0  0  0  0  0  0  0  0  0
    7.5256   49.1408  130.6853 C   0  0  0  0  0  0  0  0  0  0  0  0
    6.9272   49.9432  131.4046 O   0  0  0  0  0  0  0  0  0  0  0  0
    8.4397   48.0659  131.0230 C   0  0  0  0  0  0  0  0  0  0  0  0
    8.9536   47.5639  132.1973 C   0  0  0  0  0  0  0  0  0  0  0  0
    8.7930   47.8779  133.5348 C   0  0  0  0  0  0  0  0  0  0  0  0
    8.0572   48.8306  134.1817 C   0  0  0  0  0  0  0  0  0  0  0  0
    8.1030   48.8966  135.5605 C   0  0  0  0  0  0  0  0  0  0  0  0
    8.8746   48.0210  136.2808 C   0  0  0  0  0  0  0  0  0  0  0  0
    9.6215   47.0556  135.6423 C   0  0  0  0  0  0  0  0  0  0  0  0
    9.5696   46.9983  134.2775 C   0  0  0  0  0  0  0  0  0  0  0  0
   10.1805   46.1817  133.4449 N   0  0  0  0  0  0  0  0  0  0  0  0
    9.8471   46.4787  132.1869 C   0  0  0  0  0  0  0  0  0  0  0  0
   10.2410   45.8799  131.0025 C   0  0  0  0  0  0  0  0  0  0  0  0
    6.7875   49.8291  128.7001 H   0  0  0  0  0  0  0  0  0  0  0  0
    7.9958   43.7494  133.2952 C   0  0  0  0  0  0  0  0  0  0  0  0
    8.8570   42.7136  132.7552 N   0  0  0  0  0  0  0  0  0  0  0  0
    8.8728   42.8669  131.7242 H   0  0  0  0  0  0  0  0  0  0  0  0
   10.6788   42.0548  131.2364 O   0  0  0  0  0  0  0  0  0  0  0  0
   10.9229   40.6954  131.3884 C   0  0  0  0  0  0  0  0  0  0  0  0
 33 34  1  0  0  0
 34  1  1  0  0  0
  1  2  1  0  0  0
  2  3  1  0  0  0
  3  4  1  0  0  0
  4  5  1  0  0  0
  5  6  1  0  0  0
  5  7  1  0  0  0
  7 36  1  0  0  0
 36 37  1  0  0  0
  5  8  1  0  0  0
  8  9  1  0  0  0
  9 10  2  0  0  0
 10 11  1  0  0  0
 11 12  2  0  0  0
 12 13  1  0  0  0
 13 14  2  0  0  0
 14 15  1  0  0  0
 15 16  2  0  0  0
 16 17  1  0  0  0
 17 18  1  0  0  0
 18 19  1  0  0  0
 19 20  2  0  0  0
 19 21  1  0  0  0
 21 22  2  0  0  0
 22 23  1  0  0  0
 23 24  2  0  0  0
 24 25  1  0  0  0
 25 26  2  0  0  0
 26 27  1  0  0  0
 27 28  2  0  0  0
 28 29  1  0  0  0
 29 30  1  0  0  0
 30 31  2  0  0  0
  7  1  1  0  0  0
 31  8  1  0  0  0
 29  3  1  0  0  0
 14  9  1  0  0  0
 31 15  1  0  0  0
 21 16  1  0  0  0
 30 22  1  0  0  0
 28 23  1  0  0  0
 34 35  1  0  0  0
 18 32  1  0  0  0
M  END
> <minimizedAffinity>
6.95031

> <CNNscore>
0.3958060145

> <CNNaffinity>
7.5207009315

> <CNN_VS>
2.9767386913

> <CNNaffinity_variance>
0.2948696613

$$$$
[H]c1c([H])c([H])c2c(c1[H])c1c3c(c4c5c([H])c([H])c([H])c([H])c5n5c4c1n2[C@@]1(C([H])([H])[H])O[C@]5([H])C([H])([H])[C@@]([H])(N([H])C([H])([H])[H])[C@@]1([H])OC([H])([H])[H])C(=O)N([H])C3([H])[H]


 37 44  0  0  0  0  0  0  0  0999 V2000
   10.7710   44.1434  134.5540 C   0  0  0  0  0  0  0  0  0  0  0  0
   10.2593   43.0561  133.7179 C   0  0  0  0  0  0  0  0  0  0  0  0
    8.9772   43.3803  133.0594 C   0  0  0  0  0  0  0  0  0  0  0  0
    8.2419   44.3920  133.4344 O   0  0  0  0  0  0  0  0  0  0  0  0
    8.7803   45.5903  133.8956 C   0  0  0  0  0  0  0  0  0  0  0  0
    7.5726   46.1769  134.6385 C   0  0  0  0  0  0  0  0  0  0  0  0
    9.8702   45.3157  134.8240 C   0  0  0  0  0  0  0  0  0  0  0  0
    9.1359   46.4059  132.7210 N   0  0  0  0  0  0  0  0  0  0  0  0
    9.2169   47.7328  132.6431 C   0  0  0  0  0  0  0  0  0  0  0  0
    9.0517   48.7291  133.5647 C   0  0  0  0  0  0  0  0  0  0  0  0
    9.1968   50.0566  133.2290 C   0  0  0  0  0  0  0  0  0  0  0  0
    9.5212   50.4422  131.9246 C   0  0  0  0  0  0  0  0  0  0  0  0
    9.6869   49.4551  131.0050 C   0  0  0  0  0  0  0  0  0  0  0  0
    9.5399   48.1380  131.3508 C   0  0  0  0  0  0  0  0  0  0  0  0
    9.6617   46.9906  130.6124 C   0  0  0  0  0  0  0  0  0  0  0  0
    9.9651   46.7408  129.2723 C   0  0  0  0  0  0  0  0  0  0  0  0
   10.2644   47.6863  128.1726 C   0  0  0  0  0  0  0  0  0  0  0  0
   10.5040   46.9064  127.0035 N   0  0  0  0  0  0  0  0  0  0  0  0
   10.3608   45.5254  127.3514 C   0  0  0  0  0  0  0  0  0  0  0  0
   10.5180   44.6379  126.5107 O   0  0  0  0  0  0  0  0  0  0  0  0
   10.0269   45.4453  128.7611 C   0  0  0  0  0  0  0  0  0  0  0  0
    9.7755   44.4164  129.6404 C   0  0  0  0  0  0  0  0  0  0  0  0
    9.7526   43.0376  129.5335 C   0  0  0  0  0  0  0  0  0  0  0  0
    9.9654   42.1851  128.4868 C   0  0  0  0  0  0  0  0  0  0  0  0
    9.8703   40.8233  128.6965 C   0  0  0  0  0  0  0  0  0  0  0  0
    9.5664   40.3227  129.9366 C   0  0  0  0  0  0  0  0  0  0  0  0
    9.3493   41.1700  131.0009 C   0  0  0  0  0  0  0  0  0  0  0  0
    9.4457   42.5160  130.7833 C   0  0  0  0  0  0  0  0  0  0  0  0
    9.2859   43.5184  131.6219 N   0  0  0  0  0  0  0  0  0  0  0  0
    9.4708   44.6782  130.9875 C   0  0  0  0  0  0  0  0  0  0  0  0
    9.4120   45.9725  131.4754 C   0  0  0  0  0  0  0  0  0  0  0  0
   10.7421   47.3019  126.0636 H   0  0  0  0  0  0  0  0  0  0  0  0
   12.4713   43.6640  132.9294 C   0  0  0  0  0  0  0  0  0  0  0  0
   12.0488   44.5960  133.9585 N   0  0  0  0  0  0  0  0  0  0  0  0
   11.9321   45.5142  133.4789 H   0  0  0  0  0  0  0  0  0  0  0  0
   10.7503   46.3666  135.0714 O   0  0  0  0  0  0  0  0  0  0  0  0
   10.3313   47.2005  136.1008 C   0  0  0  0  0  0  0  0  0  0  0  0
 33 34  1  0  0  0
 34  1  1  0  0  0
  1  2  1  0  0  0
  2  3  1  0  0  0
  3  4  1  0  0  0
  4  5  1  0  0  0
  5  6  1  0  0  0
  5  7  1  0  0  0
  7 36  1  0  0  0
 36 37  1  0  0  0
  5  8  1  0  0  0
  8  9  1  0  0  0
  9 10  2  0  0  0
 10 11  1  0  0  0
 11 12  2  0  0  0
 12 13  1  0  0  0
 13 14  2  0  0  0
 14 15  1  0  0  0
 15 16  2  0  0  0
 16 17  1  0  0  0
 17 18  1  0  0  0
 18 19  1  0  0  0
 19 20  2  0  0  0
 19 21  1  0  0  0
 21 22  2  0  0  0
 22 23  1  0  0  0
 23 24  2  0  0  0
 24 25  1  0  0  0
 25 26  2  0  0  0
 26 27  1  0  0  0
 27 28  2  0  0  0
 28 29  1  0  0  0
 29 30  1  0  0  0
 30 31  2  0  0  0
  7  1  1  0  0  0
 31  8  1  0  0  0
 29  3  1  0  0  0
 14  9  1  0  0  0
 31 15  1  0  0  0
 21 16  1  0  0  0
 30 22  1  0  0  0
 28 23  1  0  0  0
 34 35  1  0  0  0
 18 32  1  0  0  0
M  END
> <minimizedAffinity>
15.31028

> <CNNscore>
0.3913453817

> <CNNaffinity>
7.3487029076

> <CNN_VS>
2.8758809566

> <CNNaffinity_variance>
0.2865034044

$$$$
[H]c1c([H])c([H])c2c(c1[H])c1c3c(c4c5c([H])c([H])c([H])c([H])c5n5c4c1n2[C@@]1(C([H])([H])[H])O[C@]5([H])C([H])([H])[C@@]([H])(N([H])C([H])([H])[H])[C@@]1([H])OC([H])([H])[H])C(=O)N([H])C3([H])[H]


 37 44  0  0  0  0  0  0  0  0999 V2000
   12.1950   43.0681  132.2932 C   0  0  0  0  0  0  0  0  0  0  0  0
   11.5364   42.6900  131.0416 C   0  0  0  0  0  0  0  0  0  0  0  0
   10.0620   42.6938  131.1339 C   0  0  0  0  0  0  0  0  0  0  0  0
    9.4394   42.7236  132.2812 O   0  0  0  0  0  0  0  0  0  0  0  0
    9.9211   43.4194  133.3868 C   0  0  0  0  0  0  0  0  0  0  0  0
    9.1426   42.7318  134.5163 C   0  0  0  0  0  0  0  0  0  0  0  0
   11.3523   43.1834  133.5323 C   0  0  0  0  0  0  0  0  0  0  0  0
    9.5209   44.8300  133.2405 N   0  0  0  0  0  0  0  0  0  0  0  0
    9.3275   45.7276  134.2050 C   0  0  0  0  0  0  0  0  0  0  0  0
    9.4612   45.6736  135.5645 C   0  0  0  0  0  0  0  0  0  0  0  0
    9.1983   46.7653  136.3614 C   0  0  0  0  0  0  0  0  0  0  0  0
    8.7817   47.9808  135.8097 C   0  0  0  0  0  0  0  0  0  0  0  0
    8.6477   48.0394  134.4583 C   0  0  0  0  0  0  0  0  0  0  0  0
    8.9122   46.9467  133.6759 C   0  0  0  0  0  0  0  0  0  0  0  0
    8.8553   46.7719  132.3185 C   0  0  0  0  0  0  0  0  0  0  0  0
    8.5113   47.6123  131.2574 C   0  0  0  0  0  0  0  0  0  0  0  0
    8.0769   49.0279  131.2675 C   0  0  0  0  0  0  0  0  0  0  0  0
    7.8508   49.4062  129.9116 N   0  0  0  0  0  0  0  0  0  0  0  0
    8.1304   48.2750  129.0804 C   0  0  0  0  0  0  0  0  0  0  0  0
    8.0103   48.3405  127.8554 O   0  0  0  0  0  0  0  0  0  0  0  0
    8.5378   47.1748  129.9340 C   0  0  0  0  0  0  0  0  0  0  0  0
    8.9211   45.8706  129.7170 C   0  0  0  0  0  0  0  0  0  0  0  0
    9.0841   45.0859  128.5898 C   0  0  0  0  0  0  0  0  0  0  0  0
    8.9064   45.3296  127.2568 C   0  0  0  0  0  0  0  0  0  0  0  0
    9.1573   44.3205  126.3478 C   0  0  0  0  0  0  0  0  0  0  0  0
    9.5800   43.0853  126.7678 C   0  0  0  0  0  0  0  0  0  0  0  0
    9.7633   42.8252  128.1081 C   0  0  0  0  0  0  0  0  0  0  0  0
    9.5124   43.8303  129.0000 C   0  0  0  0  0  0  0  0  0  0  0  0
    9.6097   43.8351  130.3129 N   0  0  0  0  0  0  0  0  0  0  0  0
    9.2653   45.0325  130.7919 C   0  0  0  0  0  0  0  0  0  0  0  0
    9.2304   45.4855  132.0997 C   0  0  0  0  0  0  0  0  0  0  0  0
    7.5345   50.3559  129.6043 H   0  0  0  0  0  0  0  0  0  0  0  0
   12.9801   44.5975  130.6186 C   0  0  0  0  0  0  0  0  0  0  0  0
   12.9284   44.3299  132.0440 N   0  0  0  0  0  0  0  0  0  0  0  0
   12.4287   45.1413  132.4668 H   0  0  0  0  0  0  0  0  0  0  0  0
   12.0493   44.0874  134.3306 O   0  0  0  0  0  0  0  0  0  0  0  0
   12.1405   43.6878  135.6582 C   0  0  0  0  0  0  0  0  0  0  0  0
 33 34  1  0  0  0
 34  1  1  0  0  0
  1  2  1  0  0  0
  2  3  1  0  0  0
  3  4  1  0  0  0
  4  5  1  0  0  0
  5  6  1  0  0  0
  5  7  1  0  0  0
  7 36  1  0  0  0
 36 37  1  0  0  0
  5  8  1  0  0  0
  8  9  1  0  0  0
  9 10  2  0  0  0
 10 11  1  0  0  0
 11 12  2  0  0  0
 12 13  1  0  0  0
 13 14  2  0  0  0
 14 15  1  0  0  0
 15 16  2  0  0  0
 16 17  1  0  0  0
 17 18  1  0  0  0
 18 19  1  0  0  0
 19 20  2  0  0  0
 19 21  1  0  0  0
 21 22  2  0  0  0
 22 23  1  0  0  0
 23 24  2  0  0  0
 24 25  1  0  0  0
 25 26  2  0  0  0
 26 27  1  0  0  0
 27 28  2  0  0  0
 28 29  1  0  0  0
 29 30  1  0  0  0
 30 31  2  0  0  0
  7  1  1  0  0  0
 31  8  1  0  0  0
 29  3  1  0  0  0
 14  9  1  0  0  0
 31 15  1  0  0  0
 21 16  1  0  0  0
 30 22  1  0  0  0
 28 23  1  0  0  0
 34 35  1  0  0  0
 18 32  1  0  0  0
M  END
> <minimizedAffinity>
7.78444

> <CNNscore>
0.3586343825

> <CNNaffinity>
7.5912537575

> <CNN_VS>
2.7224845886

> <CNNaffinity_variance>
0.3256161511

$$$$
[H]c1c([H])c([H])c2c(c1[H])c1c3c(c4c5c([H])c([H])c([H])c([H])c5n5c4c1n2[C@@]1(C([H])([H])[H])O[C@]5([H])C([H])([H])[C@@]([H])(N([H])C([H])([H])[H])[C@@]1([H])OC([H])([H])[H])C(=O)N([H])C3([H])[H]


 37 44  0  0  0  0  0  0  0  0999 V2000
    7.1878   46.6454  128.9096 C   0  0  0  0  0  0  0  0  0  0  0  0
    7.9656   45.4166  128.7403 C   0  0  0  0  0  0  0  0  0  0  0  0
    9.4198   45.6196  128.9039 C   0  0  0  0  0  0  0  0  0  0  0  0
    9.9600   46.8081  128.8869 O   0  0  0  0  0  0  0  0  0  0  0  0
    9.3280   47.9352  129.4053 C   0  0  0  0  0  0  0  0  0  0  0  0
   10.1112   49.0499  128.6992 C   0  0  0  0  0  0  0  0  0  0  0  0
    7.9299   47.9496  128.9928 C   0  0  0  0  0  0  0  0  0  0  0  0
    9.5620   47.9534  130.8600 N   0  0  0  0  0  0  0  0  0  0  0  0
    9.5831   49.0103  131.6700 C   0  0  0  0  0  0  0  0  0  0  0  0
    9.3710   50.3447  131.4615 C   0  0  0  0  0  0  0  0  0  0  0  0
    9.4479   51.2587  132.4884 C   0  0  0  0  0  0  0  0  0  0  0  0
    9.7476   50.8573  133.7940 C   0  0  0  0  0  0  0  0  0  0  0  0
    9.9589   49.5315  134.0062 C   0  0  0  0  0  0  0  0  0  0  0  0
    9.8796   48.6316  132.9767 C   0  0  0  0  0  0  0  0  0  0  0  0
   10.0435   47.2718  132.9500 C   0  0  0  0  0  0  0  0  0  0  0  0
   10.3492   46.3239  133.9290 C   0  0  0  0  0  0  0  0  0  0  0  0
   10.6065   46.5004  135.3765 C   0  0  0  0  0  0  0  0  0  0  0  0
   10.8705   45.2073  135.9156 N   0  0  0  0  0  0  0  0  0  0  0  0
   10.7840   44.2541  134.8513 C   0  0  0  0  0  0  0  0  0  0  0  0
   10.9727   43.0534  135.0558 O   0  0  0  0  0  0  0  0  0  0  0  0
   10.4602   44.9668  133.6297 C   0  0  0  0  0  0  0  0  0  0  0  0
   10.2531   44.5993  132.3194 C   0  0  0  0  0  0  0  0  0  0  0  0
   10.2587   43.3938  131.6413 C   0  0  0  0  0  0  0  0  0  0  0  0
   10.4896   42.1070  132.0395 C   0  0  0  0  0  0  0  0  0  0  0  0
   10.4216   41.0904  131.1071 C   0  0  0  0  0  0  0  0  0  0  0  0
   10.1267   41.3588  129.7949 C   0  0  0  0  0  0  0  0  0  0  0  0
    9.8916   42.6508  129.3791 C   0  0  0  0  0  0  0  0  0  0  0  0
    9.9612   43.6501  130.3093 C   0  0  0  0  0  0  0  0  0  0  0  0
    9.7809   44.9466  130.1679 N   0  0  0  0  0  0  0  0  0  0  0  0
    9.9460   45.5612  131.3413 C   0  0  0  0  0  0  0  0  0  0  0  0
    9.8423   46.9048  131.6584 C   0  0  0  0  0  0  0  0  0  0  0  0
   11.0877   45.0159  136.9219 H   0  0  0  0  0  0  0  0  0  0  0  0
    4.9546   46.8166  129.7717 C   0  0  0  0  0  0  0  0  0  0  0  0
    6.3236   46.4621  130.0977 N   0  0  0  0  0  0  0  0  0  0  0  0
    6.2959   45.4612  130.3877 H   0  0  0  0  0  0  0  0  0  0  0  0
    7.0787   48.7751  129.7239 O   0  0  0  0  0  0  0  0  0  0  0  0
    6.8641   50.0093  129.1230 C   0  0  0  0  0  0  0  0  0  0  0  0
 33 34  1  0  0  0
 34  1  1  0  0  0
  1  2  1  0  0  0
  2  3  1  0  0  0
  3  4  1  0  0  0
  4  5  1  0  0  0
  5  6  1  0  0  0
  5  7  1  0  0  0
  7 36  1  0  0  0
 36 37  1  0  0  0
  5  8  1  0  0  0
  8  9  1  0  0  0
  9 10  2  0  0  0
 10 11  1  0  0  0
 11 12  2  0  0  0
 12 13  1  0  0  0
 13 14  2  0  0  0
 14 15  1  0  0  0
 15 16  2  0  0  0
 16 17  1  0  0  0
 17 18  1  0  0  0
 18 19  1  0  0  0
 19 20  2  0  0  0
 19 21  1  0  0  0
 21 22  2  0  0  0
 22 23  1  0  0  0
 23 24  2  0  0  0
 24 25  1  0  0  0
 25 26  2  0  0  0
 26 27  1  0  0  0
 27 28  2  0  0  0
 28 29  1  0  0  0
 29 30  1  0  0  0
 30 31  2  0  0  0
  7  1  1  0  0  0
 31  8  1  0  0  0
 29  3  1  0  0  0
 14  9  1  0  0  0
 31 15  1  0  0  0
 21 16  1  0  0  0
 30 22  1  0  0  0
 28 23  1  0  0  0
 34 35  1  0  0  0
 18 32  1  0  0  0
M  END
> <minimizedAffinity>
8.89990

> <CNNscore>
0.2886223793

> <CNNaffinity>
7.4125633240

> <CNN_VS>
2.1394317150

> <CNNaffinity_variance>
0.2031783760

$$$$
[H]c1c([H])c([H])c2c(c1[H])c1c3c(c4c5c([H])c([H])c([H])c([H])c5n5c4c1n2[C@@]1(C([H])([H])[H])O[C@]5([H])C([H])([H])[C@@]([H])(N([H])C([H])([H])[H])[C@@]1([H])OC([H])([H])[H])C(=O)N([H])C3([H])[H]


 37 44  0  0  0  0  0  0  0  0999 V2000
   10.8352   49.3850  132.5376 C   0  0  0  0  0  0  0  0  0  0  0  0
   11.2281   48.1887  133.2845 C   0  0  0  0  0  0  0  0  0  0  0  0
   10.0881   47.3125  133.6241 C   0  0  0  0  0  0  0  0  0  0  0  0
    8.8509   47.7212  133.5407 O   0  0  0  0  0  0  0  0  0  0  0  0
    8.4097   48.6064  132.5606 C   0  0  0  0  0  0  0  0  0  0  0  0
    7.1125   49.1166  133.2021 C   0  0  0  0  0  0  0  0  0  0  0  0
    9.3698   49.6930  132.4099 C   0  0  0  0  0  0  0  0  0  0  0  0
    8.1349   47.8270  131.3407 N   0  0  0  0  0  0  0  0  0  0  0  0
    7.2850   48.1210  130.3586 C   0  0  0  0  0  0  0  0  0  0  0  0
    6.4605   49.1878  130.1321 C   0  0  0  0  0  0  0  0  0  0  0  0
    5.6626   49.2608  129.0123 C   0  0  0  0  0  0  0  0  0  0  0  0
    5.6631   48.2410  128.0554 C   0  0  0  0  0  0  0  0  0  0  0  0
    6.4815   47.1785  128.2761 C   0  0  0  0  0  0  0  0  0  0  0  0
    7.2708   47.1172  129.3938 C   0  0  0  0  0  0  0  0  0  0  0  0
    8.1632   46.1690  129.8193 C   0  0  0  0  0  0  0  0  0  0  0  0
    8.5851   44.9457  129.2940 C   0  0  0  0  0  0  0  0  0  0  0  0
    8.1786   44.2539  128.0494 C   0  0  0  0  0  0  0  0  0  0  0  0
    8.9141   43.0342  127.9888 N   0  0  0  0  0  0  0  0  0  0  0  0
    9.7499   42.9593  129.1484 C   0  0  0  0  0  0  0  0  0  0  0  0
   10.4920   41.9933  129.3364 O   0  0  0  0  0  0  0  0  0  0  0  0
    9.5306   44.1531  129.9432 C   0  0  0  0  0  0  0  0  0  0  0  0
   10.0341   44.6322  131.1315 C   0  0  0  0  0  0  0  0  0  0  0  0
   10.9661   44.1694  132.0427 C   0  0  0  0  0  0  0  0  0  0  0  0
   11.7292   43.0369  132.0945 C   0  0  0  0  0  0  0  0  0  0  0  0
   12.5899   42.8521  133.1588 C   0  0  0  0  0  0  0  0  0  0  0  0
   12.6846   43.7880  134.1567 C   0  0  0  0  0  0  0  0  0  0  0  0
   11.9216   44.9342  134.1179 C   0  0  0  0  0  0  0  0  0  0  0  0
   11.0728   45.1080  133.0605 C   0  0  0  0  0  0  0  0  0  0  0  0
   10.2501   46.1010  132.7952 N   0  0  0  0  0  0  0  0  0  0  0  0
    9.6028   45.8647  131.6520 C   0  0  0  0  0  0  0  0  0  0  0  0
    8.6610   46.6362  130.9929 C   0  0  0  0  0  0  0  0  0  0  0  0
    8.8369   42.3312  127.2166 H   0  0  0  0  0  0  0  0  0  0  0  0
   10.4622   48.9978  130.1987 C   0  0  0  0  0  0  0  0  0  0  0  0
   11.4670   49.3000  131.2013 N   0  0  0  0  0  0  0  0  0  0  0  0
   11.8775   50.2172  130.9239 H   0  0  0  0  0  0  0  0  0  0  0  0
    9.2830   50.4352  131.2343 O   0  0  0  0  0  0  0  0  0  0  0  0
    8.2120   51.3204  131.2239 C   0  0  0  0  0  0  0  0  0  0  0  0
 33 34  1  0  0  0
 34  1  1  0  0  0
  1  2  1  0  0  0
  2  3  1  0  0  0
  3  4  1  0  0  0
  4  5  1  0  0  0
  5  6  1  0  0  0
  5  7  1  0  0  0
  7 36  1  0  0  0
 36 37  1  0  0  0
  5  8  1  0  0  0
  8  9  1  0  0  0
  9 10  2  0  0  0
 10 11  1  0  0  0
 11 12  2  0  0  0
 12 13  1  0  0  0
 13 14  2  0  0  0
 14 15  1  0  0  0
 15 16  2  0  0  0
 16 17  1  0  0  0
 17 18  1  0  0  0
 18 19  1  0  0  0
 19 20  2  0  0  0
 19 21  1  0  0  0
 21 22  2  0  0  0
 22 23  1  0  0  0
 23 24  2  0  0  0
 24 25  1  0  0  0
 25 26  2  0  0  0
 26 27  1  0  0  0
 27 28  2  0  0  0
 28 29  1  0  0  0
 29 30  1  0  0  0
 30 31  2  0  0  0
  7  1  1  0  0  0
 31  8  1  0  0  0
 29  3  1  0  0  0
 14  9  1  0  0  0
 31 15  1  0  0  0
 21 16  1  0  0  0
 30 22  1  0  0  0
 28 23  1  0  0  0
 34 35  1  0  0  0
 18 32  1  0  0  0
M  END
> <minimizedAffinity>
9.94453

> <CNNscore>
0.2105199397

> <CNNaffinity>
7.1190962791

> <CNN_VS>
1.4987117052

> <CNNaffinity_variance>
0.1744646579

$$$$
[H]c1c([H])c([H])c2c(c1[H])c1c3c(c4c5c([H])c([H])c([H])c([H])c5n5c4c1n2[C@@]1(C([H])([H])[H])O[C@]5([H])C([H])([H])[C@@]([H])(N([H])C([H])([H])[H])[C@@]1([H])OC([H])([H])[H])C(=O)N([H])C3([H])[H]


 37 44  0  0  0  0  0  0  0  0999 V2000
    8.1450   46.9471  128.9993 C   0  0  0  0  0  0  0  0  0  0  0  0
    9.4899   46.5883  128.5454 C   0  0  0  0  0  0  0  0  0  0  0  0
   10.5601   47.3071  129.2667 C   0  0  0  0  0  0  0  0  0  0  0  0
   10.3165   48.3621  129.9963 O   0  0  0  0  0  0  0  0  0  0  0  0
    9.1474   48.5184  130.7359 C   0  0  0  0  0  0  0  0  0  0  0  0
    9.1490   50.0376  130.9519 C   0  0  0  0  0  0  0  0  0  0  0  0
    7.9991   48.1152  129.9334 C   0  0  0  0  0  0  0  0  0  0  0  0
    9.3193   47.7952  132.0082 N   0  0  0  0  0  0  0  0  0  0  0  0
    8.7226   48.0401  133.1732 C   0  0  0  0  0  0  0  0  0  0  0  0
    7.7813   48.9527  133.5609 C   0  0  0  0  0  0  0  0  0  0  0  0
    7.3111   49.0024  134.8541 C   0  0  0  0  0  0  0  0  0  0  0  0
    7.7796   48.1164  135.8293 C   0  0  0  0  0  0  0  0  0  0  0  0
    8.7152   47.2070  135.4484 C   0  0  0  0  0  0  0  0  0  0  0  0
    9.1753   47.1672  134.1589 C   0  0  0  0  0  0  0  0  0  0  0  0
   10.0932   46.3517  133.5515 C   0  0  0  0  0  0  0  0  0  0  0  0
   10.8836   45.2934  134.0050 C   0  0  0  0  0  0  0  0  0  0  0  0
   10.9835   44.6909  135.3540 C   0  0  0  0  0  0  0  0  0  0  0  0
   11.9413   43.6381  135.2725 N   0  0  0  0  0  0  0  0  0  0  0  0
   12.4265   43.5796  133.9272 C   0  0  0  0  0  0  0  0  0  0  0  0
   13.2716   42.7477  133.5912 O   0  0  0  0  0  0  0  0  0  0  0  0
   11.7584   44.6133  133.1590 C   0  0  0  0  0  0  0  0  0  0  0  0
   11.8088   45.0322  131.8486 C   0  0  0  0  0  0  0  0  0  0  0  0
   12.5123   44.6240  130.7299 C   0  0  0  0  0  0  0  0  0  0  0  0
   13.4403   43.6418  130.5255 C   0  0  0  0  0  0  0  0  0  0  0  0
   13.9764   43.4730  129.2639 C   0  0  0  0  0  0  0  0  0  0  0  0
   13.5885   44.2763  128.2222 C   0  0  0  0  0  0  0  0  0  0  0  0
   12.6541   45.2702  128.4134 C   0  0  0  0  0  0  0  0  0  0  0  0
   12.1295   45.4295  129.6656 C   0  0  0  0  0  0  0  0  0  0  0  0
   11.2356   46.2926  130.1008 N   0  0  0  0  0  0  0  0  0  0  0  0
   11.0092   46.0986  131.4019 C   0  0  0  0  0  0  0  0  0  0  0  0
   10.1481   46.7628  132.2586 C   0  0  0  0  0  0  0  0  0  0  0  0
   12.2232   43.0275  136.0751 H   0  0  0  0  0  0  0  0  0  0  0  0
    8.4350   44.6031  129.4252 C   0  0  0  0  0  0  0  0  0  0  0  0
    7.5374   45.7318  129.5876 N   0  0  0  0  0  0  0  0  0  0  0  0
    7.4037   45.8422  130.6155 H   0  0  0  0  0  0  0  0  0  0  0  0
    6.8234   47.8446  130.6297 O   0  0  0  0  0  0  0  0  0  0  0  0
    5.6831   47.9610  129.8443 C   0  0  0  0  0  0  0  0  0  0  0  0
 33 34  1  0  0  0
 34  1  1  0  0  0
  1  2  1  0  0  0
  2  3  1  0  0  0
  3  4  1  0  0  0
  4  5  1  0  0  0
  5  6  1  0  0  0
  5  7  1  0  0  0
  7 36  1  0  0  0
 36 37  1  0  0  0
  5  8  1  0  0  0
  8  9  1  0  0  0
  9 10  2  0  0  0
 10 11  1  0  0  0
 11 12  2  0  0  0
 12 13  1  0  0  0
 13 14  2  0  0  0
 14 15  1  0  0  0
 15 16  2  0  0  0
 16 17  1  0  0  0
 17 18  1  0  0  0
 18 19  1  0  0  0
 19 20  2  0  0  0
 19 21  1  0  0  0
 21 22  2  0  0  0
 22 23  1  0  0  0
 23 24  2  0  0  0
 24 25  1  0  0  0
 25 26  2  0  0  0
 26 27  1  0  0  0
 27 28  2  0  0  0
 28 29  1  0  0  0
 29 30  1  0  0  0
 30 31  2  0  0  0
  7  1  1  0  0  0
 31  8  1  0  0  0
 29  3  1  0  0  0
 14  9  1  0  0  0
 31 15  1  0  0  0
 21 16  1  0  0  0
 30 22  1  0  0  0
 28 23  1  0  0  0
 34 35  1  0  0  0
 18 32  1  0  0  0
M  END
> <minimizedAffinity>
12.46970

> <CNNscore>
0.2073306441

> <CNNaffinity>
7.2078437805

> <CNN_VS>
1.4944069386

> <CNNaffinity_variance>
0.1646578014

$$$$
[H]c1c([H])c([H])c2c(c1[H])c1c3c(c4c5c([H])c([H])c([H])c([H])c5n5c4c1n2[C@@]1(C([H])([H])[H])O[C@]5([H])C([H])([H])[C@@]([H])(N([H])C([H])([H])[H])[C@@]1([H])OC([H])([H])[H])C(=O)N([H])C3([H])[H]


 37 44  0  0  0  0  0  0  0  0999 V2000
    7.3478   48.5729  129.2443 C   0  0  0  0  0  0  0  0  0  0  0  0
    8.3352   47.8381  128.4515 C   0  0  0  0  0  0  0  0  0  0  0  0
    9.6831   47.8349  129.0562 C   0  0  0  0  0  0  0  0  0  0  0  0
   10.0141   48.6556  130.0162 O   0  0  0  0  0  0  0  0  0  0  0  0
    9.1227   49.0646  131.0044 C   0  0  0  0  0  0  0  0  0  0  0  0
    9.8243   50.3307  131.5134 C   0  0  0  0  0  0  0  0  0  0  0  0
    7.8376   49.3970  130.4017 C   0  0  0  0  0  0  0  0  0  0  0  0
    9.0872   48.0173  132.0403 N   0  0  0  0  0  0  0  0  0  0  0  0
    8.7889   48.1556  133.3308 C   0  0  0  0  0  0  0  0  0  0  0  0
    8.4001   49.2280  134.0844 C   0  0  0  0  0  0  0  0  0  0  0  0
    8.1408   49.1097  135.4315 C   0  0  0  0  0  0  0  0  0  0  0  0
    8.2650   47.8810  136.0876 C   0  0  0  0  0  0  0  0  0  0  0  0
    8.6509   46.8119  135.3423 C   0  0  0  0  0  0  0  0  0  0  0  0
    8.9060   46.9418  134.0028 C   0  0  0  0  0  0  0  0  0  0  0  0
    9.2941   46.0235  133.0633 C   0  0  0  0  0  0  0  0  0  0  0  0
    9.5725   44.6560  133.1174 C   0  0  0  0  0  0  0  0  0  0  0  0
    9.5349   43.7224  134.2662 C   0  0  0  0  0  0  0  0  0  0  0  0
    9.9082   42.4375  133.7739 N   0  0  0  0  0  0  0  0  0  0  0  0
   10.1713   42.5562  132.3719 C   0  0  0  0  0  0  0  0  0  0  0  0
   10.5161   41.5791  131.7044 O   0  0  0  0  0  0  0  0  0  0  0  0
    9.9575   43.9384  131.9860 C   0  0  0  0  0  0  0  0  0  0  0  0
   10.0508   44.6403  130.8054 C   0  0  0  0  0  0  0  0  0  0  0  0
   10.3761   44.3036  129.5039 C   0  0  0  0  0  0  0  0  0  0  0  0
   10.7414   43.1259  128.9146 C   0  0  0  0  0  0  0  0  0  0  0  0
   11.0095   43.1049  127.5598 C   0  0  0  0  0  0  0  0  0  0  0  0
   10.9130   44.2468  126.8065 C   0  0  0  0  0  0  0  0  0  0  0  0
   10.5460   45.4409  127.3870 C   0  0  0  0  0  0  0  0  0  0  0  0
   10.2827   45.4516  128.7283 C   0  0  0  0  0  0  0  0  0  0  0  0
    9.9191   46.4486  129.5074 N   0  0  0  0  0  0  0  0  0  0  0  0
    9.7686   46.0167  130.7615 C   0  0  0  0  0  0  0  0  0  0  0  0
    9.3898   46.7121  131.8971 C   0  0  0  0  0  0  0  0  0  0  0  0
    9.9711   41.5718  134.3596 H   0  0  0  0  0  0  0  0  0  0  0  0
    5.3106   47.4408  128.6715 C   0  0  0  0  0  0  0  0  0  0  0  0
    6.3278   47.5986  129.6945 N   0  0  0  0  0  0  0  0  0  0  0  0
    6.7474   46.6533  129.8253 H   0  0  0  0  0  0  0  0  0  0  0  0
    6.7453   49.4479  131.2648 O   0  0  0  0  0  0  0  0  0  0  0  0
    5.7849   50.3744  130.8778 C   0  0  0  0  0  0  0  0  0  0  0  0
 33 34  1  0  0  0
 34  1  1  0  0  0
  1  2  1  0  0  0
  2  3  1  0  0  0
  3  4  1  0  0  0
  4  5  1  0  0  0
  5  6  1  0  0  0
  5  7  1  0  0  0
  7 36  1  0  0  0
 36 37  1  0  0  0
  5  8  1  0  0  0
  8  9  1  0  0  0
  9 10  2  0  0  0
 10 11  1  0  0  0
 11 12  2  0  0  0
 12 13  1  0  0  0
 13 14  2  0  0  0
 14 15  1  0  0  0
 15 16  2  0  0  0
 16 17  1  0  0  0
 17 18  1  0  0  0
 18 19  1  0  0  0
 19 20  2  0  0  0
 19 21  1  0  0  0
 21 22  2  0  0  0
 22 23  1  0  0  0
 23 24  2  0  0  0
 24 25  1  0  0  0
 25 26  2  0  0  0
 26 27  1  0  0  0
 27 28  2  0  0  0
 28 29  1  0  0  0
 29 30  1  0  0  0
 30 31  2  0  0  0
  7  1  1  0  0  0
 31  8  1  0  0  0
 29  3  1  0  0  0
 14  9  1  0  0  0
 31 15  1  0  0  0
 21 16  1  0  0  0
 30 22  1  0  0  0
 28 23  1  0  0  0
 34 35  1  0  0  0
 18 32  1  0  0  0
M  END
> <minimizedAffinity>
6.44004

> <CNNscore>
0.1862379611

> <CNNaffinity>
7.1189985275

> <CNN_VS>
1.3258277178

> <CNNaffinity_variance>
0.2258048356

$$$$
[H]c1c([H])c([H])c(C([H])([H])OC(=O)N([H])[C@]([H])(C(=O)N([H])[C@]([H])(C(=O)N([H])[C@]([H])(C(=O)N2C([H])([H])C([H])([H])C([H])([H])C([H])([H])C2([H])[H])C([H])([H])C([H])([H])C([H])([H])N=C(N([H])[H])N([H])[H])C([H])([H])C([H])(C([H])([H])[H])C([H])([H])[H])C([H])([H])C([H])(C([H])([H])[H])C([H])([H])[H])c([H])c1[H]


 50 51  0  0  0  0  0  0  0  0999 V2000
    8.8598   45.3126  134.1943 C   0  0  0  0  0  0  0  0  0  0  0  0
    9.1119   44.6768  132.8927 N   0  0  0  0  0  0  0  0  0  0  0  0
    8.4559   43.4928  132.5105 C   0  0  0  0  0  0  0  0  0  0  0  0
    7.6037   42.9621  133.3036 O   0  0  0  0  0  0  0  0  0  0  0  0
    9.7792   45.1658  132.2579 H   0  0  0  0  0  0  0  0  0  0  0  0
    8.6596   42.7938  131.2399 C   0  0  0  0  0  0  0  0  0  0  0  0
    8.9570   43.7453  130.2097 N   0  0  0  0  0  0  0  0  0  0  0  0
    9.2361   43.4710  128.8463 C   0  0  0  0  0  0  0  0  0  0  0  0
    9.2489   42.2766  128.3837 O   0  0  0  0  0  0  0  0  0  0  0  0
    8.9701   44.7532  130.4873 H   0  0  0  0  0  0  0  0  0  0  0  0
    9.5103   44.4576  127.9339 O   0  0  0  0  0  0  0  0  0  0  0  0
   10.5642   45.3710  127.9751 C   0  0  0  0  0  0  0  0  0  0  0  0
   11.4423   45.3175  129.1371 C   0  0  0  0  0  0  0  0  0  0  0  0
   12.5698   44.5535  129.1449 C   0  0  0  0  0  0  0  0  0  0  0  0
   13.3896   44.5220  130.2521 C   0  0  0  0  0  0  0  0  0  0  0  0
   13.0438   45.2788  131.3440 C   0  0  0  0  0  0  0  0  0  0  0  0
   11.9031   46.0775  131.3873 C   0  0  0  0  0  0  0  0  0  0  0  0
   11.1302   46.0598  130.2467 C   0  0  0  0  0  0  0  0  0  0  0  0
    9.4364   41.5396  131.2577 C   0  0  0  0  0  0  0  0  0  0  0  0
   10.9138   41.6251  131.3013 C   0  0  0  0  0  0  0  0  0  0  0  0
   11.4353   42.5753  132.3635 C   0  0  0  0  0  0  0  0  0  0  0  0
   11.4088   40.2219  131.7045 C   0  0  0  0  0  0  0  0  0  0  0  0
    8.7644   46.7921  133.9924 C   0  0  0  0  0  0  0  0  0  0  0  0
    8.1279   47.4645  134.8395 O   0  0  0  0  0  0  0  0  0  0  0  0
    9.3552   47.4539  132.9013 N   0  0  0  0  0  0  0  0  0  0  0  0
    9.8615   46.8861  132.1935 H   0  0  0  0  0  0  0  0  0  0  0  0
    9.2444   48.9258  132.7827 C   0  0  0  0  0  0  0  0  0  0  0  0
    9.1601   49.2753  131.3552 C   0  0  0  0  0  0  0  0  0  0  0  0
    9.9248   50.1371  130.8817 O   0  0  0  0  0  0  0  0  0  0  0  0
    8.2212   48.6391  130.5089 N   0  0  0  0  0  0  0  0  0  0  0  0
    7.3309   47.6170  131.0254 C   0  0  0  0  0  0  0  0  0  0  0  0
    7.1127   46.6131  129.9072 C   0  0  0  0  0  0  0  0  0  0  0  0
    6.2047   47.2924  128.8932 C   0  0  0  0  0  0  0  0  0  0  0  0
    6.7162   48.6789  128.5953 C   0  0  0  0  0  0  0  0  0  0  0  0
    8.0971   48.9543  129.0963 C   0  0  0  0  0  0  0  0  0  0  0  0
   10.4210   49.5053  133.4863 C   0  0  0  0  0  0  0  0  0  0  0  0
   10.9670   48.6293  134.5800 C   0  0  0  0  0  0  0  0  0  0  0  0
   12.4781   48.8181  134.7206 C   0  0  0  0  0  0  0  0  0  0  0  0
   12.7881   49.3097  136.0641 N   0  0  0  0  0  0  0  0  0  0  0  0
   13.8249   48.8273  136.6718 C   0  0  0  0  0  0  0  0  0  0  0  0
   14.1578   49.2753  137.9727 N   0  0  0  0  0  0  0  0  0  0  0  0
   14.6659   47.8569  136.0892 N   0  0  0  0  0  0  0  0  0  0  0  0
   14.1176   48.6115  138.7551 H   0  0  0  0  0  0  0  0  0  0  0  0
   14.4332   50.2576  138.1142 H   0  0  0  0  0  0  0  0  0  0  0  0
   15.4270   48.1490  135.4545 H   0  0  0  0  0  0  0  0  0  0  0  0
   14.5271   46.8540  136.2916 H   0  0  0  0  0  0  0  0  0  0  0  0
    9.8647   44.9962  135.2327 C   0  0  0  0  0  0  0  0  0  0  0  0
   11.6501   43.2999  135.6839 C   0  0  0  0  0  0  0  0  0  0  0  0
   11.0873   44.2876  134.6863 C   0  0  0  0  0  0  0  0  0  0  0  0
   12.1864   45.3148  134.4525 C   0  0  0  0  0  0  0  0  0  0  0  0
 48 49  1  0  0  0
 49 50  1  0  0  0
 49 47  1  0  0  0
 47  1  1  0  0  0
  1  2  1  0  0  0
  2  3  1  0  0  0
  3  4  2  0  0  0
  3  6  1  0  0  0
  6 19  1  0  0  0
 19 20  1  0  0  0
 20 21  1  0  0  0
 20 22  1  0  0  0
  6  7  1  0  0  0
  7  8  1  0  0  0
  8  9  2  0  0  0
  8 11  1  0  0  0
 11 12  1  0  0  0
 12 13  1  0  0  0
 13 14  2  0  0  0
 14 15  1  0  0  0
 15 16  2  0  0  0
 16 17  1  0  0  0
 17 18  2  0  0  0
  1 23  1  0  0  0
 23 24  2  0  0  0
 23 25  1  0  0  0
 25 27  1  0  0  0
 27 36  1  0  0  0
 36 37  1  0  0  0
 37 38  1  0  0  0
 38 39  1  0  0  0
 39 40  2  0  0  0
 40 41  1  0  0  0
 40 42  1  0  0  0
 27 28  1  0  0  0
 28 29  2  0  0  0
 28 30  1  0  0  0
 30 31  1  0  0  0
 31 32  1  0  0  0
 32 33  1  0  0  0
 33 34  1  0  0  0
 34 35  1  0  0  0
 18 13  1  0  0  0
 35 30  1  0  0  0
  2  5  1  0  0  0
  7 10  1  0  0  0
 25 26  1  0  0  0
 41 43  1  0  0  0
 41 44  1  0  0  0
 42 45  1  0  0  0
 42 46  1  0  0  0
M  END
> <minimizedAffinity>
5.62824

> <CNNscore>
0.5667654276

> <CNNaffinity>
8.1863508224

> <CNN_VS>
4.6397404671

> <CNNaffinity_variance>
0.3613485694

$$$$
[H]c1c([H])c([H])c(C([H])([H])OC(=O)N([H])[C@]([H])(C(=O)N([H])[C@]([H])(C(=O)N([H])[C@]([H])(C(=O)N2C([H])([H])C([H])([H])C([H])([H])C([H])([H])C2([H])[H])C([H])([H])C([H])([H])C([H])([H])N=C(N([H])[H])N([H])[H])C([H])([H])C([H])(C([H])([H])[H])C([H])([H])[H])C([H])([H])C([H])(C([H])([H])[H])C([H])([H])[H])c([H])c1[H]


 50 51  0  0  0  0  0  0  0  0999 V2000
    7.7089   45.8590  129.5333 C   0  0  0  0  0  0  0  0  0  0  0  0
    8.2021   45.1896  130.7460 N   0  0  0  0  0  0  0  0  0  0  0  0
    8.5657   43.8308  130.7427 C   0  0  0  0  0  0  0  0  0  0  0  0
    8.4849   43.1611  129.6556 O   0  0  0  0  0  0  0  0  0  0  0  0
    8.2958   45.7822  131.5988 H   0  0  0  0  0  0  0  0  0  0  0  0
    9.0539   43.0905  131.9080 C   0  0  0  0  0  0  0  0  0  0  0  0
   10.3705   43.5438  132.2488 N   0  0  0  0  0  0  0  0  0  0  0  0
   10.9550   43.5805  133.5408 C   0  0  0  0  0  0  0  0  0  0  0  0
   10.3217   43.1886  134.5830 O   0  0  0  0  0  0  0  0  0  0  0  0
   10.9705   43.8850  131.4636 H   0  0  0  0  0  0  0  0  0  0  0  0
   12.2297   44.0349  133.7639 O   0  0  0  0  0  0  0  0  0  0  0  0
   12.9435   44.9493  132.9886 C   0  0  0  0  0  0  0  0  0  0  0  0
   12.5505   45.0828  131.5916 C   0  0  0  0  0  0  0  0  0  0  0  0
   11.6517   46.0239  131.1898 C   0  0  0  0  0  0  0  0  0  0  0  0
   11.2984   46.1370  129.8627 C   0  0  0  0  0  0  0  0  0  0  0  0
   11.8742   45.2809  128.9571 C   0  0  0  0  0  0  0  0  0  0  0  0
   12.7989   44.3021  129.3151 C   0  0  0  0  0  0  0  0  0  0  0  0
   13.1042   44.2457  130.6576 C   0  0  0  0  0  0  0  0  0  0  0  0
    8.1092   42.8397  133.0132 C   0  0  0  0  0  0  0  0  0  0  0  0
    7.4682   41.5084  133.1054 C   0  0  0  0  0  0  0  0  0  0  0  0
    6.4235   41.4129  134.2021 C   0  0  0  0  0  0  0  0  0  0  0  0
    6.7116   41.3084  131.7772 C   0  0  0  0  0  0  0  0  0  0  0  0
    8.2328   47.2605  129.5151 C   0  0  0  0  0  0  0  0  0  0  0  0
    9.0429   47.5771  128.6104 O   0  0  0  0  0  0  0  0  0  0  0  0
    7.8562   48.2292  130.4624 N   0  0  0  0  0  0  0  0  0  0  0  0
    7.2020   47.9517  131.2205 H   0  0  0  0  0  0  0  0  0  0  0  0
    8.3930   49.6058  130.3639 C   0  0  0  0  0  0  0  0  0  0  0  0
    9.1904   49.8846  131.5694 C   0  0  0  0  0  0  0  0  0  0  0  0
    9.6627   51.0229  131.7507 O   0  0  0  0  0  0  0  0  0  0  0  0
    9.4245   48.8738  132.5317 N   0  0  0  0  0  0  0  0  0  0  0  0
    8.8710   47.5441  132.3597 C   0  0  0  0  0  0  0  0  0  0  0  0
    8.5443   47.0173  133.7459 C   0  0  0  0  0  0  0  0  0  0  0  0
    9.8758   46.6863  134.4028 C   0  0  0  0  0  0  0  0  0  0  0  0
   10.8363   47.8340  134.2211 C   0  0  0  0  0  0  0  0  0  0  0  0
   10.2090   49.0997  133.7332 C   0  0  0  0  0  0  0  0  0  0  0  0
    7.2267   50.5116  130.1783 C   0  0  0  0  0  0  0  0  0  0  0  0
    7.0612   51.0081  128.7684 C   0  0  0  0  0  0  0  0  0  0  0  0
    7.2914   52.5182  128.6962 C   0  0  0  0  0  0  0  0  0  0  0  0
    6.5935   53.0657  127.5317 N   0  0  0  0  0  0  0  0  0  0  0  0
    7.1234   54.0731  126.9142 C   0  0  0  0  0  0  0  0  0  0  0  0
    6.4790   54.6326  125.7848 N   0  0  0  0  0  0  0  0  0  0  0  0
    8.3438   54.6552  127.3143 N   0  0  0  0  0  0  0  0  0  0  0  0
    6.1291   55.5966  125.8360 H   0  0  0  0  0  0  0  0  0  0  0  0
    6.3704   54.0654  124.9320 H   0  0  0  0  0  0  0  0  0  0  0  0
    9.2380   54.2489  126.9938 H   0  0  0  0  0  0  0  0  0  0  0  0
    8.3517   55.4862  127.9271 H   0  0  0  0  0  0  0  0  0  0  0  0
    6.2366   45.8555  129.3905 C   0  0  0  0  0  0  0  0  0  0  0  0
    4.1647   47.1868  129.8418 C   0  0  0  0  0  0  0  0  0  0  0  0
    5.6257   47.2404  129.4542 C   0  0  0  0  0  0  0  0  0  0  0  0
    5.6648   47.8587  128.0635 C   0  0  0  0  0  0  0  0  0  0  0  0
 48 49  1  0  0  0
 49 50  1  0  0  0
 49 47  1  0  0  0
 47  1  1  0  0  0
  1  2  1  0  0  0
  2  3  1  0  0  0
  3  4  2  0  0  0
  3  6  1  0  0  0
  6 19  1  0  0  0
 19 20  1  0  0  0
 20 21  1  0  0  0
 20 22  1  0  0  0
  6  7  1  0  0  0
  7  8  1  0  0  0
  8  9  2  0  0  0
  8 11  1  0  0  0
 11 12  1  0  0  0
 12 13  1  0  0  0
 13 14  2  0  0  0
 14 15  1  0  0  0
 15 16  2  0  0  0
 16 17  1  0  0  0
 17 18  2  0  0  0
  1 23  1  0  0  0
 23 24  2  0  0  0
 23 25  1  0  0  0
 25 27  1  0  0  0
 27 36  1  0  0  0
 36 37  1  0  0  0
 37 38  1  0  0  0
 38 39  1  0  0  0
 39 40  2  0  0  0
 40 41  1  0  0  0
 40 42  1  0  0  0
 27 28  1  0  0  0
 28 29  2  0  0  0
 28 30  1  0  0  0
 30 31  1  0  0  0
 31 32  1  0  0  0
 32 33  1  0  0  0
 33 34  1  0  0  0
 34 35  1  0  0  0
 18 13  1  0  0  0
 35 30  1  0  0  0
  2  5  1  0  0  0
  7 10  1  0  0  0
 25 26  1  0  0  0
 41 43  1  0  0  0
 41 44  1  0  0  0
 42 45  1  0  0  0
 42 46  1  0  0  0
M  END
> <minimizedAffinity>
2.34018

> <CNNscore>
0.3672282398

> <CNNaffinity>
7.7998442650

> <CNN_VS>
2.8643231392

> <CNNaffinity_variance>
0.2768279910

$$$$
[H]c1c([H])c([H])c(C([H])([H])OC(=O)N([H])[C@]([H])(C(=O)N([H])[C@]([H])(C(=O)N([H])[C@]([H])(C(=O)N2C([H])([H])C([H])([H])C([H])([H])C([H])([H])C2([H])[H])C([H])([H])C([H])([H])C([H])([H])N=C(N([H])[H])N([H])[H])C([H])([H])C([H])(C([H])([H])[H])C([H])([H])[H])C([H])([H])C([H])(C([H])([H])[H])C([H])([H])[H])c([H])c1[H]


 50 51  0  0  0  0  0  0  0  0999 V2000
    9.2866   45.4679  129.4861 C   0  0  0  0  0  0  0  0  0  0  0  0
   10.5434   45.2391  130.2143 N   0  0  0  0  0  0  0  0  0  0  0  0
   11.7368   44.9168  129.5432 C   0  0  0  0  0  0  0  0  0  0  0  0
   11.7384   44.8380  128.2663 O   0  0  0  0  0  0  0  0  0  0  0  0
   10.5089   45.3576  131.2497 H   0  0  0  0  0  0  0  0  0  0  0  0
   13.0234   44.6640  130.1951 C   0  0  0  0  0  0  0  0  0  0  0  0
   12.8813   44.8126  131.6138 N   0  0  0  0  0  0  0  0  0  0  0  0
   12.5538   43.7999  132.5516 C   0  0  0  0  0  0  0  0  0  0  0  0
   12.3424   42.5880  132.1949 O   0  0  0  0  0  0  0  0  0  0  0  0
   13.0356   45.7693  132.0063 H   0  0  0  0  0  0  0  0  0  0  0  0
   12.4410   44.0449  133.8963 O   0  0  0  0  0  0  0  0  0  0  0  0
   11.3528   43.7454  134.7166 C   0  0  0  0  0  0  0  0  0  0  0  0
   10.0760   44.3590  134.3741 C   0  0  0  0  0  0  0  0  0  0  0  0
    9.3516   43.9456  133.2973 C   0  0  0  0  0  0  0  0  0  0  0  0
    8.1436   44.5356  132.9947 C   0  0  0  0  0  0  0  0  0  0  0  0
    7.6884   45.5469  133.8038 C   0  0  0  0  0  0  0  0  0  0  0  0
    8.3892   46.0063  134.9168 C   0  0  0  0  0  0  0  0  0  0  0  0
    9.5884   45.3720  135.1586 C   0  0  0  0  0  0  0  0  0  0  0  0
   13.8376   43.5361  129.7035 C   0  0  0  0  0  0  0  0  0  0  0  0
   15.1877   43.8212  129.1672 C   0  0  0  0  0  0  0  0  0  0  0  0
   15.5833   42.9216  128.0107 C   0  0  0  0  0  0  0  0  0  0  0  0
   15.1235   45.2504  128.5928 C   0  0  0  0  0  0  0  0  0  0  0  0
    8.8088   46.8545  129.7825 C   0  0  0  0  0  0  0  0  0  0  0  0
    7.7015   46.9879  130.3578 O   0  0  0  0  0  0  0  0  0  0  0  0
    9.5449   48.0045  129.4459 N   0  0  0  0  0  0  0  0  0  0  0  0
   10.4502   47.8849  128.9502 H   0  0  0  0  0  0  0  0  0  0  0  0
    9.0223   49.3446  129.7977 C   0  0  0  0  0  0  0  0  0  0  0  0
    8.7067   49.3613  131.2354 C   0  0  0  0  0  0  0  0  0  0  0  0
    7.6341   49.8575  131.6290 O   0  0  0  0  0  0  0  0  0  0  0  0
    9.6072   48.8144  132.1802 N   0  0  0  0  0  0  0  0  0  0  0  0
   10.8548   48.2109  131.7520 C   0  0  0  0  0  0  0  0  0  0  0  0
   11.1450   47.0674  132.7079 C   0  0  0  0  0  0  0  0  0  0  0  0
   11.5755   47.7052  134.0202 C   0  0  0  0  0  0  0  0  0  0  0  0
   10.6107   48.8000  134.3986 C   0  0  0  0  0  0  0  0  0  0  0  0
    9.3422   48.8128  133.6084 C   0  0  0  0  0  0  0  0  0  0  0  0
    7.8538   49.5986  128.9115 C   0  0  0  0  0  0  0  0  0  0  0  0
    6.8568   50.5685  129.4834 C   0  0  0  0  0  0  0  0  0  0  0  0
    5.4360   50.1993  129.0550 C   0  0  0  0  0  0  0  0  0  0  0  0
    5.0153   48.9810  129.7490 N   0  0  0  0  0  0  0  0  0  0  0  0
    5.2103   47.8417  129.1650 C   0  0  0  0  0  0  0  0  0  0  0  0
    4.8163   46.6406  129.8021 N   0  0  0  0  0  0  0  0  0  0  0  0
    5.8155   47.7301  127.8963 N   0  0  0  0  0  0  0  0  0  0  0  0
    4.0760   46.0696  129.3774 H   0  0  0  0  0  0  0  0  0  0  0  0
    5.2760   46.3593  130.6797 H   0  0  0  0  0  0  0  0  0  0  0  0
    6.8454   47.7172  127.8161 H   0  0  0  0  0  0  0  0  0  0  0  0
    5.2365   47.6614  127.0442 H   0  0  0  0  0  0  0  0  0  0  0  0
    8.2239   44.4813  129.7783 C   0  0  0  0  0  0  0  0  0  0  0  0
    9.4621   42.3664  130.2909 C   0  0  0  0  0  0  0  0  0  0  0  0
    8.5614   43.0811  129.3083 C   0  0  0  0  0  0  0  0  0  0  0  0
    9.3528   43.1760  128.0113 C   0  0  0  0  0  0  0  0  0  0  0  0
 48 49  1  0  0  0
 49 50  1  0  0  0
 49 47  1  0  0  0
 47  1  1  0  0  0
  1  2  1  0  0  0
  2  3  1  0  0  0
  3  4  2  0  0  0
  3  6  1  0  0  0
  6 19  1  0  0  0
 19 20  1  0  0  0
 20 21  1  0  0  0
 20 22  1  0  0  0
  6  7  1  0  0  0
  7  8  1  0  0  0
  8  9  2  0  0  0
  8 11  1  0  0  0
 11 12  1  0  0  0
 12 13  1  0  0  0
 13 14  2  0  0  0
 14 15  1  0  0  0
 15 16  2  0  0  0
 16 17  1  0  0  0
 17 18  2  0  0  0
  1 23  1  0  0  0
 23 24  2  0  0  0
 23 25  1  0  0  0
 25 27  1  0  0  0
 27 36  1  0  0  0
 36 37  1  0  0  0
 37 38  1  0  0  0
 38 39  1  0  0  0
 39 40  2  0  0  0
 40 41  1  0  0  0
 40 42  1  0  0  0
 27 28  1  0  0  0
 28 29  2  0  0  0
 28 30  1  0  0  0
 30 31  1  0  0  0
 31 32  1  0  0  0
 32 33  1  0  0  0
 33 34  1  0  0  0
 34 35  1  0  0  0
 18 13  1  0  0  0
 35 30  1  0  0  0
  2  5  1  0  0  0
  7 10  1  0  0  0
 25 26  1  0  0  0
 41 43  1  0  0  0
 41 44  1  0  0  0
 42 45  1  0  0  0
 42 46  1  0  0  0
M  END
> <minimizedAffinity>
2.79495

> <CNNscore>
0.3531112969

> <CNNaffinity>
8.2195758820

> <CNN_VS>
2.9024250507

> <CNNaffinity_variance>
0.3107135594

$$$$
[H]c1c([H])c([H])c(C([H])([H])OC(=O)N([H])[C@]([H])(C(=O)N([H])[C@]([H])(C(=O)N([H])[C@]([H])(C(=O)N2C([H])([H])C([H])([H])C([H])([H])C([H])([H])C2([H])[H])C([H])([H])C([H])([H])C([H])([H])N=C(N([H])[H])N([H])[H])C([H])([H])C([H])(C([H])([H])[H])C([H])([H])[H])C([H])([H])C([H])(C([H])([H])[H])C([H])([H])[H])c([H])c1[H]


 50 51  0  0  0  0  0  0  0  0999 V2000
    8.5000   46.0090  128.9892 C   0  0  0  0  0  0  0  0  0  0  0  0
    8.6571   44.9500  129.9972 N   0  0  0  0  0  0  0  0  0  0  0  0
    8.9700   43.6274  129.6351 C   0  0  0  0  0  0  0  0  0  0  0  0
    9.1417   43.3373  128.4008 O   0  0  0  0  0  0  0  0  0  0  0  0
    8.5537   45.2379  130.9940 H   0  0  0  0  0  0  0  0  0  0  0  0
    9.1319   42.5164  130.5752 C   0  0  0  0  0  0  0  0  0  0  0  0
   10.2763   42.7522  131.4059 N   0  0  0  0  0  0  0  0  0  0  0  0
   11.1535   41.7793  131.9501 C   0  0  0  0  0  0  0  0  0  0  0  0
   10.9934   40.5266  131.7363 O   0  0  0  0  0  0  0  0  0  0  0  0
   10.4938   43.7480  131.6386 H   0  0  0  0  0  0  0  0  0  0  0  0
   12.2269   42.1086  132.7379 O   0  0  0  0  0  0  0  0  0  0  0  0
   13.0042   43.2645  132.6585 C   0  0  0  0  0  0  0  0  0  0  0  0
   12.7298   44.1730  131.5524 C   0  0  0  0  0  0  0  0  0  0  0  0
   13.0193   43.8374  130.2646 C   0  0  0  0  0  0  0  0  0  0  0  0
   12.7460   44.7090  129.2328 C   0  0  0  0  0  0  0  0  0  0  0  0
   12.1751   45.9206  129.5338 C   0  0  0  0  0  0  0  0  0  0  0  0
   11.8585   46.3123  130.8328 C   0  0  0  0  0  0  0  0  0  0  0  0
   12.1598   45.3923  131.8134 C   0  0  0  0  0  0  0  0  0  0  0  0
    7.9204   41.9727  131.2181 C   0  0  0  0  0  0  0  0  0  0  0  0
    7.5486   42.4734  132.5607 C   0  0  0  0  0  0  0  0  0  0  0  0
    6.7798   41.4638  133.3932 C   0  0  0  0  0  0  0  0  0  0  0  0
    8.8761   42.7176  133.3056 C   0  0  0  0  0  0  0  0  0  0  0  0
    9.1413   47.2584  129.5056 C   0  0  0  0  0  0  0  0  0  0  0  0
    9.5841   48.0841  128.6708 O   0  0  0  0  0  0  0  0  0  0  0  0
    9.2658   47.5426  130.8772 N   0  0  0  0  0  0  0  0  0  0  0  0
    8.9159   46.8429  131.5611 H   0  0  0  0  0  0  0  0  0  0  0  0
    9.8858   48.8143  131.3143 C   0  0  0  0  0  0  0  0  0  0  0  0
   10.0210   48.7896  132.7799 C   0  0  0  0  0  0  0  0  0  0  0  0
   10.5164   49.7664  133.3733 O   0  0  0  0  0  0  0  0  0  0  0  0
    9.5895   47.6682  133.5275 N   0  0  0  0  0  0  0  0  0  0  0  0
    8.9898   46.5239  132.8680 C   0  0  0  0  0  0  0  0  0  0  0  0
    7.9461   45.9622  133.8170 C   0  0  0  0  0  0  0  0  0  0  0  0
    8.7120   45.2736  134.9366 C   0  0  0  0  0  0  0  0  0  0  0  0
    9.8053   46.1800  135.4424 C   0  0  0  0  0  0  0  0  0  0  0  0
    9.7073   47.5957  134.9734 C   0  0  0  0  0  0  0  0  0  0  0  0
    9.0261   49.9138  130.7973 C   0  0  0  0  0  0  0  0  0  0  0  0
    7.7592   50.1148  131.5821 C   0  0  0  0  0  0  0  0  0  0  0  0
    6.5507   50.1919  130.6481 C   0  0  0  0  0  0  0  0  0  0  0  0
    6.6220   51.4196  129.8542 N   0  0  0  0  0  0  0  0  0  0  0  0
    6.9726   51.3289  128.6109 C   0  0  0  0  0  0  0  0  0  0  0  0
    7.0552   52.4929  127.8096 N   0  0  0  0  0  0  0  0  0  0  0  0
    7.2800   50.0985  127.9942 N   0  0  0  0  0  0  0  0  0  0  0  0
    7.9688   52.7808  127.4397 H   0  0  0  0  0  0  0  0  0  0  0  0
    6.2004   53.0320  127.6114 H   0  0  0  0  0  0  0  0  0  0  0  0
    6.5216   49.5101  127.6123 H   0  0  0  0  0  0  0  0  0  0  0  0
    8.2592   49.7794  127.9214 H   0  0  0  0  0  0  0  0  0  0  0  0
    7.0990   46.2722  128.5941 C   0  0  0  0  0  0  0  0  0  0  0  0
    5.9560   46.3260  130.8211 C   0  0  0  0  0  0  0  0  0  0  0  0
    6.3444   47.1226  129.5955 C   0  0  0  0  0  0  0  0  0  0  0  0
    5.0364   47.5794  128.9645 C   0  0  0  0  0  0  0  0  0  0  0  0
 48 49  1  0  0  0
 49 50  1  0  0  0
 49 47  1  0  0  0
 47  1  1  0  0  0
  1  2  1  0  0  0
  2  3  1  0  0  0
  3  4  2  0  0  0
  3  6  1  0  0  0
  6 19  1  0  0  0
 19 20  1  0  0  0
 20 21  1  0  0  0
 20 22  1  0  0  0
  6  7  1  0  0  0
  7  8  1  0  0  0
  8  9  2  0  0  0
  8 11  1  0  0  0
 11 12  1  0  0  0
 12 13  1  0  0  0
 13 14  2  0  0  0
 14 15  1  0  0  0
 15 16  2  0  0  0
 16 17  1  0  0  0
 17 18  2  0  0  0
  1 23  1  0  0  0
 23 24  2  0  0  0
 23 25  1  0  0  0
 25 27  1  0  0  0
 27 36  1  0  0  0
 36 37  1  0  0  0
 37 38  1  0  0  0
 38 39  1  0  0  0
 39 40  2  0  0  0
 40 41  1  0  0  0
 40 42  1  0  0  0
 27 28  1  0  0  0
 28 29  2  0  0  0
 28 30  1  0  0  0
 30 31  1  0  0  0
 31 32  1  0  0  0
 32 33  1  0  0  0
 33 34  1  0  0  0
 34 35  1  0  0  0
 18 13  1  0  0  0
 35 30  1  0  0  0
  2  5  1  0  0  0
  7 10  1  0  0  0
 25 26  1  0  0  0
 41 43  1  0  0  0
 41 44  1  0  0  0
 42 45  1  0  0  0
 42 46  1  0  0  0
M  END
> <minimizedAffinity>
2.62146

> <CNNscore>
0.3476384878

> <CNNaffinity>
7.8414602280

> <CNN_VS>
2.7259933949

> <CNNaffinity_variance>
0.8130997419

$$$$
[H]c1c([H])c([H])c(C([H])([H])OC(=O)N([H])[C@]([H])(C(=O)N([H])[C@]([H])(C(=O)N([H])[C@]([H])(C(=O)N2C([H])([H])C([H])([H])C([H])([H])C([H])([H])C2([H])[H])C([H])([H])C([H])([H])C([H])([H])N=C(N([H])[H])N([H])[H])C([H])([H])C([H])(C([H])([H])[H])C([H])([H])[H])C([H])([H])C([H])(C([H])([H])[H])C([H])([H])[H])c([H])c1[H]


 50 51  0  0  0  0  0  0  0  0999 V2000
    8.2957   45.2950  129.4971 C   0  0  0  0  0  0  0  0  0  0  0  0
    9.6892   45.5489  129.8918 N   0  0  0  0  0  0  0  0  0  0  0  0
   10.7695   44.9899  129.1856 C   0  0  0  0  0  0  0  0  0  0  0  0
   10.5400   44.2569  128.1624 O   0  0  0  0  0  0  0  0  0  0  0  0
    9.8336   46.1879  130.7030 H   0  0  0  0  0  0  0  0  0  0  0  0
   12.1815   45.1851  129.5209 C   0  0  0  0  0  0  0  0  0  0  0  0
   12.3334   45.2491  130.9449 N   0  0  0  0  0  0  0  0  0  0  0  0
   12.2467   44.1719  131.8638 C   0  0  0  0  0  0  0  0  0  0  0  0
   12.0106   42.9722  131.4821 O   0  0  0  0  0  0  0  0  0  0  0  0
   12.5306   46.1894  131.3571 H   0  0  0  0  0  0  0  0  0  0  0  0
   12.4081   44.3375  133.2157 O   0  0  0  0  0  0  0  0  0  0  0  0
   11.4752   44.0556  134.2141 C   0  0  0  0  0  0  0  0  0  0  0  0
   10.3595   44.9820  134.3592 C   0  0  0  0  0  0  0  0  0  0  0  0
   10.4288   46.0579  135.1914 C   0  0  0  0  0  0  0  0  0  0  0  0
    9.3643   46.9251  135.3092 C   0  0  0  0  0  0  0  0  0  0  0  0
    8.2352   46.6794  134.5680 C   0  0  0  0  0  0  0  0  0  0  0  0
    8.1131   45.5948  133.7020 C   0  0  0  0  0  0  0  0  0  0  0  0
    9.2148   44.7698  133.6351 C   0  0  0  0  0  0  0  0  0  0  0  0
   13.1853   44.4172  128.7596 C   0  0  0  0  0  0  0  0  0  0  0  0
   14.5649   44.3381  129.2909 C   0  0  0  0  0  0  0  0  0  0  0  0
   15.2432   43.0074  129.0215 C   0  0  0  0  0  0  0  0  0  0  0  0
   15.3788   45.3954  128.5186 C   0  0  0  0  0  0  0  0  0  0  0  0
    7.5363   46.5822  129.5717 C   0  0  0  0  0  0  0  0  0  0  0  0
    6.4656   46.5998  130.2260 O   0  0  0  0  0  0  0  0  0  0  0  0
    7.9711   47.7632  128.9443 N   0  0  0  0  0  0  0  0  0  0  0  0
    8.8474   47.7333  128.3866 H   0  0  0  0  0  0  0  0  0  0  0  0
    7.1823   49.0082  129.0867 C   0  0  0  0  0  0  0  0  0  0  0  0
    7.3110   49.4879  130.4724 C   0  0  0  0  0  0  0  0  0  0  0  0
    6.3745   50.1176  131.0000 O   0  0  0  0  0  0  0  0  0  0  0  0
    8.4874   49.2381  131.2182 N   0  0  0  0  0  0  0  0  0  0  0  0
    9.5872   48.4901  130.6393 C   0  0  0  0  0  0  0  0  0  0  0  0
   10.2259   47.6978  131.7662 C   0  0  0  0  0  0  0  0  0  0  0  0
   10.9857   48.7027  132.6189 C   0  0  0  0  0  0  0  0  0  0  0  0
   10.1073   49.8918  132.9143 C   0  0  0  0  0  0  0  0  0  0  0  0
    8.6626   49.6959  132.5856 C   0  0  0  0  0  0  0  0  0  0  0  0
    5.7882   48.6851  128.6777 C   0  0  0  0  0  0  0  0  0  0  0  0
    4.8049   49.7914  128.9439 C   0  0  0  0  0  0  0  0  0  0  0  0
    3.8262   49.9375  127.7779 C   0  0  0  0  0  0  0  0  0  0  0  0
    2.8703   51.0067  128.0708 N   0  0  0  0  0  0  0  0  0  0  0  0
    2.2033   51.5220  127.0877 C   0  0  0  0  0  0  0  0  0  0  0  0
    1.2705   52.5592  127.3289 N   0  0  0  0  0  0  0  0  0  0  0  0
    2.3566   51.0901  125.7542 N   0  0  0  0  0  0  0  0  0  0  0  0
    1.4447   53.4899  126.9315 H   0  0  0  0  0  0  0  0  0  0  0  0
    0.4347   52.3651  127.8984 H   0  0  0  0  0  0  0  0  0  0  0  0
    1.8293   50.2691  125.4147 H   0  0  0  0  0  0  0  0  0  0  0  0
    2.9936   51.5883  125.1123 H   0  0  0  0  0  0  0  0  0  0  0  0
    7.6176   44.2479  130.2919 C   0  0  0  0  0  0  0  0  0  0  0  0
    8.9801   42.2022  129.8150 C   0  0  0  0  0  0  0  0  0  0  0  0
    8.5707   43.2162  130.8599 C   0  0  0  0  0  0  0  0  0  0  0  0
    7.8509   42.4278  131.9453 C   0  0  0  0  0  0  0  0  0  0  0  0
 48 49  1  0  0  0
 49 50  1  0  0  0
 49 47  1  0  0  0
 47  1  1  0  0  0
  1  2  1  0  0  0
  2  3  1  0  0  0
  3  4  2  0  0  0
  3  6  1  0  0  0
  6 19  1  0  0  0
 19 20  1  0  0  0
 20 21  1  0  0  0
 20 22  1  0  0  0
  6  7  1  0  0  0
  7  8  1  0  0  0
  8  9  2  0  0  0
  8 11  1  0  0  0
 11 12  1  0  0  0
 12 13  1  0  0  0
 13 14  2  0  0  0
 14 15  1  0  0  0
 15 16  2  0  0  0
 16 17  1  0  0  0
 17 18  2  0  0  0
  1 23  1  0  0  0
 23 24  2  0  0  0
 23 25  1  0  0  0
 25 27  1  0  0  0
 27 36  1  0  0  0
 36 37  1  0  0  0
 37 38  1  0  0  0
 38 39  1  0  0  0
 39 40  2  0  0  0
 40 41  1  0  0  0
 40 42  1  0  0  0
 27 28  1  0  0  0
 28 29  2  0  0  0
 28 30  1  0  0  0
 30 31  1  0  0  0
 31 32  1  0  0  0
 32 33  1  0  0  0
 33 34  1  0  0  0
 34 35  1  0  0  0
 18 13  1  0  0  0
 35 30  1  0  0  0
  2  5  1  0  0  0
  7 10  1  0  0  0
 25 26  1  0  0  0
 41 43  1  0  0  0
 41 44  1  0  0  0
 42 45  1  0  0  0
 42 46  1  0  0  0
M  END
> <minimizedAffinity>
5.56109

> <CNNscore>
0.3390100300

> <CNNaffinity>
7.8387613297

> <CNN_VS>
2.6574187279

> <CNNaffinity_variance>
0.3630804121

$$$$
[H]c1c([H])c([H])c(C([H])([H])OC(=O)N([H])[C@]([H])(C(=O)N([H])[C@]([H])(C(=O)N([H])[C@]([H])(C(=O)N2C([H])([H])C([H])([H])C([H])([H])C([H])([H])C2([H])[H])C([H])([H])C([H])([H])C([H])([H])N=C(N([H])[H])N([H])[H])C([H])([H])C([H])(C([H])([H])[H])C([H])([H])[H])C([H])([H])C([H])(C([H])([H])[H])C([H])([H])[H])c([H])c1[H]


 50 51  0  0  0  0  0  0  0  0999 V2000
    8.6189   46.8000  128.8374 C   0  0  0  0  0  0  0  0  0  0  0  0
    9.0267   45.5637  129.5211 N   0  0  0  0  0  0  0  0  0  0  0  0
    8.9030   44.3051  128.9056 C   0  0  0  0  0  0  0  0  0  0  0  0
    8.4425   44.2303  127.7143 O   0  0  0  0  0  0  0  0  0  0  0  0
    9.4390   45.6729  130.4726 H   0  0  0  0  0  0  0  0  0  0  0  0
    9.2752   43.0299  129.5219 C   0  0  0  0  0  0  0  0  0  0  0  0
   10.6862   43.0116  129.7748 N   0  0  0  0  0  0  0  0  0  0  0  0
   11.6753   43.8251  129.1650 C   0  0  0  0  0  0  0  0  0  0  0  0
   11.3804   44.7025  128.2797 O   0  0  0  0  0  0  0  0  0  0  0  0
   11.0296   42.3266  130.4861 H   0  0  0  0  0  0  0  0  0  0  0  0
   13.0074   43.7302  129.4775 O   0  0  0  0  0  0  0  0  0  0  0  0
   13.6923   44.4431  130.4621 C   0  0  0  0  0  0  0  0  0  0  0  0
   13.0712   44.5189  131.7784 C   0  0  0  0  0  0  0  0  0  0  0  0
   12.8971   43.4104  132.5503 C   0  0  0  0  0  0  0  0  0  0  0  0
   12.3128   43.5053  133.7947 C   0  0  0  0  0  0  0  0  0  0  0  0
   11.9125   44.7417  134.2370 C   0  0  0  0  0  0  0  0  0  0  0  0
   12.0681   45.9062  133.4880 C   0  0  0  0  0  0  0  0  0  0  0  0
   12.6584   45.7365  132.2545 C   0  0  0  0  0  0  0  0  0  0  0  0
    8.3863   42.4800  130.5632 C   0  0  0  0  0  0  0  0  0  0  0  0
    8.6494   42.8362  131.9758 C   0  0  0  0  0  0  0  0  0  0  0  0
    7.6234   42.2760  132.9437 C   0  0  0  0  0  0  0  0  0  0  0  0
    9.9893   42.1666  132.3403 C   0  0  0  0  0  0  0  0  0  0  0  0
    9.2309   47.9642  129.5510 C   0  0  0  0  0  0  0  0  0  0  0  0
    9.5918   48.9531  128.8678 O   0  0  0  0  0  0  0  0  0  0  0  0
    9.4153   47.9949  130.9447 N   0  0  0  0  0  0  0  0  0  0  0  0
    9.1336   47.1627  131.4995 H   0  0  0  0  0  0  0  0  0  0  0  0
   10.0009   49.1945  131.5856 C   0  0  0  0  0  0  0  0  0  0  0  0
    9.8979   49.0422  133.0461 C   0  0  0  0  0  0  0  0  0  0  0  0
   10.2338   49.9813  133.7925 O   0  0  0  0  0  0  0  0  0  0  0  0
    9.4160   47.8400  133.6160 N   0  0  0  0  0  0  0  0  0  0  0  0
    8.9976   46.7358  132.7734 C   0  0  0  0  0  0  0  0  0  0  0  0
    7.8478   46.0457  133.4856 C   0  0  0  0  0  0  0  0  0  0  0  0
    8.4603   45.2915  134.6562 C   0  0  0  0  0  0  0  0  0  0  0  0
    9.4034   46.1941  135.4102 C   0  0  0  0  0  0  0  0  0  0  0  0
    9.3018   47.6411  135.0504 C   0  0  0  0  0  0  0  0  0  0  0  0
    9.2742   50.3734  131.0403 C   0  0  0  0  0  0  0  0  0  0  0  0
    7.7971   50.1498  130.8670 C   0  0  0  0  0  0  0  0  0  0  0  0
    7.2310   51.0821  129.7950 C   0  0  0  0  0  0  0  0  0  0  0  0
    6.1378   50.4115  129.0894 N   0  0  0  0  0  0  0  0  0  0  0  0
    4.9780   50.3558  129.6627 C   0  0  0  0  0  0  0  0  0  0  0  0
    3.8954   49.7147  129.0140 N   0  0  0  0  0  0  0  0  0  0  0  0
    4.7275   50.9195  130.9307 N   0  0  0  0  0  0  0  0  0  0  0  0
    3.4929   48.8680  129.4328 H   0  0  0  0  0  0  0  0  0  0  0  0
    3.5299   50.1057  128.1341 H   0  0  0  0  0  0  0  0  0  0  0  0
    4.4930   51.9224  131.0115 H   0  0  0  0  0  0  0  0  0  0  0  0
    4.7770   50.3370  131.7818 H   0  0  0  0  0  0  0  0  0  0  0  0
    7.1551   46.9774  128.7192 C   0  0  0  0  0  0  0  0  0  0  0  0
    6.7560   45.6850  130.8261 C   0  0  0  0  0  0  0  0  0  0  0  0
    6.4386   46.9461  130.0537 C   0  0  0  0  0  0  0  0  0  0  0  0
    4.9371   46.9143  129.8041 C   0  0  0  0  0  0  0  0  0  0  0  0
 48 49  1  0  0  0
 49 50  1  0  0  0
 49 47  1  0  0  0
 47  1  1  0  0  0
  1  2  1  0  0  0
  2  3  1  0  0  0
  3  4  2  0  0  0
  3  6  1  0  0  0
  6 19  1  0  0  0
 19 20  1  0  0  0
 20 21  1  0  0  0
 20 22  1  0  0  0
  6  7  1  0  0  0
  7  8  1  0  0  0
  8  9  2  0  0  0
  8 11  1  0  0  0
 11 12  1  0  0  0
 12 13  1  0  0  0
 13 14  2  0  0  0
 14 15  1  0  0  0
 15 16  2  0  0  0
 16 17  1  0  0  0
 17 18  2  0  0  0
  1 23  1  0  0  0
 23 24  2  0  0  0
 23 25  1  0  0  0
 25 27  1  0  0  0
 27 36  1  0  0  0
 36 37  1  0  0  0
 37 38  1  0  0  0
 38 39  1  0  0  0
 39 40  2  0  0  0
 40 41  1  0  0  0
 40 42  1  0  0  0
 27 28  1  0  0  0
 28 29  2  0  0  0
 28 30  1  0  0  0
 30 31  1  0  0  0
 31 32  1  0  0  0
 32 33  1  0  0  0
 33 34  1  0  0  0
 34 35  1  0  0  0
 18 13  1  0  0  0
 35 30  1  0  0  0
  2  5  1  0  0  0
  7 10  1  0  0  0
 25 26  1  0  0  0
 41 43  1  0  0  0
 41 44  1  0  0  0
 42 45  1  0  0  0
 42 46  1  0  0  0
M  END
> <minimizedAffinity>
1.57245

> <CNNscore>
0.3311274052

> <CNNaffinity>
7.9976148605

> <CNN_VS>
2.6482293606

> <CNNaffinity_variance>
0.5029599071

$$$$
[H]c1c([H])c([H])c(C([H])([H])OC(=O)N([H])[C@]([H])(C(=O)N([H])[C@]([H])(C(=O)N([H])[C@]([H])(C(=O)N2C([H])([H])C([H])([H])C([H])([H])C([H])([H])C2([H])[H])C([H])([H])C([H])([H])C([H])([H])N=C(N([H])[H])N([H])[H])C([H])([H])C([H])(C([H])([H])[H])C([H])([H])[H])C([H])([H])C([H])(C([H])([H])[H])C([H])([H])[H])c([H])c1[H]


 50 51  0  0  0  0  0  0  0  0999 V2000
    9.4543   45.9881  129.1613 C   0  0  0  0  0  0  0  0  0  0  0  0
   10.5137   45.1479  129.7389 N   0  0  0  0  0  0  0  0  0  0  0  0
   11.8677   45.3365  129.4080 C   0  0  0  0  0  0  0  0  0  0  0  0
   12.1927   46.2732  128.5994 O   0  0  0  0  0  0  0  0  0  0  0  0
   10.2109   44.4261  130.4278 H   0  0  0  0  0  0  0  0  0  0  0  0
   12.9778   44.5370  129.9302 C   0  0  0  0  0  0  0  0  0  0  0  0
   12.6240   44.0021  131.2124 N   0  0  0  0  0  0  0  0  0  0  0  0
   12.2557   44.7317  132.3717 C   0  0  0  0  0  0  0  0  0  0  0  0
   12.2026   46.0115  132.3792 O   0  0  0  0  0  0  0  0  0  0  0  0
   12.6360   42.9612  131.3094 H   0  0  0  0  0  0  0  0  0  0  0  0
   11.9329   44.1232  133.5577 O   0  0  0  0  0  0  0  0  0  0  0  0
   11.0372   43.0700  133.7454 C   0  0  0  0  0  0  0  0  0  0  0  0
   10.1074   42.7893  132.6588 C   0  0  0  0  0  0  0  0  0  0  0  0
    8.7748   43.0453  132.7758 C   0  0  0  0  0  0  0  0  0  0  0  0
    7.9137   42.7780  131.7337 C   0  0  0  0  0  0  0  0  0  0  0  0
    8.4307   42.2497  130.5769 C   0  0  0  0  0  0  0  0  0  0  0  0
    9.7848   41.9703  130.4052 C   0  0  0  0  0  0  0  0  0  0  0  0
   10.5863   42.2616  131.4876 C   0  0  0  0  0  0  0  0  0  0  0  0
   13.6920   43.6498  128.9923 C   0  0  0  0  0  0  0  0  0  0  0  0
   15.1720   43.6836  128.9770 C   0  0  0  0  0  0  0  0  0  0  0  0
   15.7866   42.8372  127.8775 C   0  0  0  0  0  0  0  0  0  0  0  0
   15.5604   45.1415  128.6603 C   0  0  0  0  0  0  0  0  0  0  0  0
    9.5226   47.3433  129.7920 C   0  0  0  0  0  0  0  0  0  0  0  0
    9.4022   48.3477  129.0494 O   0  0  0  0  0  0  0  0  0  0  0  0
    9.7138   47.5348  131.1720 N   0  0  0  0  0  0  0  0  0  0  0  0
    9.8344   46.6977  131.7756 H   0  0  0  0  0  0  0  0  0  0  0  0
    9.7410   48.9062  131.7301 C   0  0  0  0  0  0  0  0  0  0  0  0
   10.0768   48.8226  133.1609 C   0  0  0  0  0  0  0  0  0  0  0  0
   10.6708   49.7673  133.7145 O   0  0  0  0  0  0  0  0  0  0  0  0
    9.7280   47.6806  133.9203 N   0  0  0  0  0  0  0  0  0  0  0  0
    9.0178   46.5729  133.3098 C   0  0  0  0  0  0  0  0  0  0  0  0
    8.1030   45.9927  134.3738 C   0  0  0  0  0  0  0  0  0  0  0  0
    9.0008   45.2485  135.3507 C   0  0  0  0  0  0  0  0  0  0  0  0
   10.1732   46.1161  135.7320 C   0  0  0  0  0  0  0  0  0  0  0  0
   10.0427   47.5503  135.3324 C   0  0  0  0  0  0  0  0  0  0  0  0
    8.4120   49.5136  131.4476 C   0  0  0  0  0  0  0  0  0  0  0  0
    8.4246   50.5037  130.3156 C   0  0  0  0  0  0  0  0  0  0  0  0
    7.2005   51.4179  130.3829 C   0  0  0  0  0  0  0  0  0  0  0  0
    5.9832   50.6199  130.2272 N   0  0  0  0  0  0  0  0  0  0  0  0
    5.9074   49.8021  129.2260 C   0  0  0  0  0  0  0  0  0  0  0  0
    4.7465   49.0138  129.0394 N   0  0  0  0  0  0  0  0  0  0  0  0
    6.9498   49.6467  128.2892 N   0  0  0  0  0  0  0  0  0  0  0  0
    4.1678   49.1668  128.2050 H   0  0  0  0  0  0  0  0  0  0  0  0
    4.5004   48.3019  129.7417 H   0  0  0  0  0  0  0  0  0  0  0  0
    7.7334   49.0047  128.4921 H   0  0  0  0  0  0  0  0  0  0  0  0
    6.9369   50.1708  127.3997 H   0  0  0  0  0  0  0  0  0  0  0  0
    8.0919   45.4262  129.2895 C   0  0  0  0  0  0  0  0  0  0  0  0
    6.6005   45.8943  131.2453 C   0  0  0  0  0  0  0  0  0  0  0  0
    7.1019   46.3920  129.9080 C   0  0  0  0  0  0  0  0  0  0  0  0
    5.8755   46.4798  129.0103 C   0  0  0  0  0  0  0  0  0  0  0  0
 48 49  1  0  0  0
 49 50  1  0  0  0
 49 47  1  0  0  0
 47  1  1  0  0  0
  1  2  1  0  0  0
  2  3  1  0  0  0
  3  4  2  0  0  0
  3  6  1  0  0  0
  6 19  1  0  0  0
 19 20  1  0  0  0
 20 21  1  0  0  0
 20 22  1  0  0  0
  6  7  1  0  0  0
  7  8  1  0  0  0
  8  9  2  0  0  0
  8 11  1  0  0  0
 11 12  1  0  0  0
 12 13  1  0  0  0
 13 14  2  0  0  0
 14 15  1  0  0  0
 15 16  2  0  0  0
 16 17  1  0  0  0
 17 18  2  0  0  0
  1 23  1  0  0  0
 23 24  2  0  0  0
 23 25  1  0  0  0
 25 27  1  0  0  0
 27 36  1  0  0  0
 36 37  1  0  0  0
 37 38  1  0  0  0
 38 39  1  0  0  0
 39 40  2  0  0  0
 40 41  1  0  0  0
 40 42  1  0  0  0
 27 28  1  0  0  0
 28 29  2  0  0  0
 28 30  1  0  0  0
 30 31  1  0  0  0
 31 32  1  0  0  0
 32 33  1  0  0  0
 33 34  1  0  0  0
 34 35  1  0  0  0
 18 13  1  0  0  0
 35 30  1  0  0  0
  2  5  1  0  0  0
  7 10  1  0  0  0
 25 26  1  0  0  0
 41 43  1  0  0  0
 41 44  1  0  0  0
 42 45  1  0  0  0
 42 46  1  0  0  0
M  END
> <minimizedAffinity>
4.71008

> <CNNscore>
0.3279279470

> <CNNaffinity>
7.8512563705

> <CNN_VS>
2.5746464729

> <CNNaffinity_variance>
0.4699915349

$$$$
[H]c1c([H])c([H])c(C([H])([H])OC(=O)N([H])[C@]([H])(C(=O)N([H])[C@]([H])(C(=O)N([H])[C@]([H])(C(=O)N2C([H])([H])C([H])([H])C([H])([H])C([H])([H])C2([H])[H])C([H])([H])C([H])([H])C([H])([H])N=C(N([H])[H])N([H])[H])C([H])([H])C([H])(C([H])([H])[H])C([H])([H])[H])C([H])([H])C([H])(C([H])([H])[H])C([H])([H])[H])c([H])c1[H]


 50 51  0  0  0  0  0  0  0  0999 V2000
   11.7909   44.4949  129.7722 C   0  0  0  0  0  0  0  0  0  0  0  0
   11.3101   44.4097  131.1592 N   0  0  0  0  0  0  0  0  0  0  0  0
   11.6961   43.3588  132.0106 C   0  0  0  0  0  0  0  0  0  0  0  0
   12.5002   42.4625  131.5784 O   0  0  0  0  0  0  0  0  0  0  0  0
   10.6930   45.1842  131.4857 H   0  0  0  0  0  0  0  0  0  0  0  0
   11.2536   43.1972  133.3971 C   0  0  0  0  0  0  0  0  0  0  0  0
   11.2643   44.4699  134.0569 N   0  0  0  0  0  0  0  0  0  0  0  0
   12.1788   45.5340  133.8483 C   0  0  0  0  0  0  0  0  0  0  0  0
   13.1356   45.4497  133.0009 O   0  0  0  0  0  0  0  0  0  0  0  0
   10.5187   44.6384  134.7701 H   0  0  0  0  0  0  0  0  0  0  0  0
   12.1040   46.7194  134.5342 O   0  0  0  0  0  0  0  0  0  0  0  0
   10.9897   47.5499  134.6576 C   0  0  0  0  0  0  0  0  0  0  0  0
    9.7059   47.0034  134.2364 C   0  0  0  0  0  0  0  0  0  0  0  0
    9.2786   47.0980  132.9467 C   0  0  0  0  0  0  0  0  0  0  0  0
    8.0637   46.5689  132.5683 C   0  0  0  0  0  0  0  0  0  0  0  0
    7.2970   45.9445  133.5206 C   0  0  0  0  0  0  0  0  0  0  0  0
    7.6876   45.8198  134.8521 C   0  0  0  0  0  0  0  0  0  0  0  0
    8.9121   46.3723  135.1590 C   0  0  0  0  0  0  0  0  0  0  0  0
   10.1110   42.3010  133.6581 C   0  0  0  0  0  0  0  0  0  0  0  0
    8.7429   42.8137  133.4189 C   0  0  0  0  0  0  0  0  0  0  0  0
    8.4252   43.0324  131.9511 C   0  0  0  0  0  0  0  0  0  0  0  0
    7.7841   41.7075  133.9023 C   0  0  0  0  0  0  0  0  0  0  0  0
   11.2609   45.7530  129.1597 C   0  0  0  0  0  0  0  0  0  0  0  0
   11.6309   46.0458  127.9968 O   0  0  0  0  0  0  0  0  0  0  0  0
   10.3716   46.6127  129.8287 N   0  0  0  0  0  0  0  0  0  0  0  0
   10.0881   46.3734  130.7993 H   0  0  0  0  0  0  0  0  0  0  0  0
    9.8650   47.8261  129.1476 C   0  0  0  0  0  0  0  0  0  0  0  0
    9.5817   48.8506  130.1660 C   0  0  0  0  0  0  0  0  0  0  0  0
   10.2961   48.9273  131.1836 O   0  0  0  0  0  0  0  0  0  0  0  0
    8.5071   49.7565  130.0016 N   0  0  0  0  0  0  0  0  0  0  0  0
    7.6697   49.7062  128.8182 C   0  0  0  0  0  0  0  0  0  0  0  0
    7.2550   51.1336  128.5079 C   0  0  0  0  0  0  0  0  0  0  0  0
    6.2298   51.5205  129.5631 C   0  0  0  0  0  0  0  0  0  0  0  0
    6.7374   51.1458  130.9323 C   0  0  0  0  0  0  0  0  0  0  0  0
    8.1856   50.7799  130.9810 C   0  0  0  0  0  0  0  0  0  0  0  0
    8.6786   47.4104  128.3509 C   0  0  0  0  0  0  0  0  0  0  0  0
    8.1203   46.0710  128.7460 C   0  0  0  0  0  0  0  0  0  0  0  0
    6.9029   46.2395  129.6561 C   0  0  0  0  0  0  0  0  0  0  0  0
    6.2987   47.5533  129.4288 N   0  0  0  0  0  0  0  0  0  0  0  0
    5.0081   47.6524  129.4702 C   0  0  0  0  0  0  0  0  0  0  0  0
    4.3849   48.9049  129.2540 N   0  0  0  0  0  0  0  0  0  0  0  0
    4.1677   46.5506  129.7313 N   0  0  0  0  0  0  0  0  0  0  0  0
    3.7837   49.0281  128.4308 H   0  0  0  0  0  0  0  0  0  0  0  0
    4.5446   49.6713  129.9232 H   0  0  0  0  0  0  0  0  0  0  0  0
    3.9741   46.2701  130.7065 H   0  0  0  0  0  0  0  0  0  0  0  0
    3.7433   46.0199  128.9539 H   0  0  0  0  0  0  0  0  0  0  0  0
   11.4453   43.3262  128.9339 C   0  0  0  0  0  0  0  0  0  0  0  0
    9.4910   41.8316  129.3980 C   0  0  0  0  0  0  0  0  0  0  0  0
    9.9523   43.1278  128.7697 C   0  0  0  0  0  0  0  0  0  0  0  0
    9.6332   43.0077  127.2860 C   0  0  0  0  0  0  0  0  0  0  0  0
 48 49  1  0  0  0
 49 50  1  0  0  0
 49 47  1  0  0  0
 47  1  1  0  0  0
  1  2  1  0  0  0
  2  3  1  0  0  0
  3  4  2  0  0  0
  3  6  1  0  0  0
  6 19  1  0  0  0
 19 20  1  0  0  0
 20 21  1  0  0  0
 20 22  1  0  0  0
  6  7  1  0  0  0
  7  8  1  0  0  0
  8  9  2  0  0  0
  8 11  1  0  0  0
 11 12  1  0  0  0
 12 13  1  0  0  0
 13 14  2  0  0  0
 14 15  1  0  0  0
 15 16  2  0  0  0
 16 17  1  0  0  0
 17 18  2  0  0  0
  1 23  1  0  0  0
 23 24  2  0  0  0
 23 25  1  0  0  0
 25 27  1  0  0  0
 27 36  1  0  0  0
 36 37  1  0  0  0
 37 38  1  0  0  0
 38 39  1  0  0  0
 39 40  2  0  0  0
 40 41  1  0  0  0
 40 42  1  0  0  0
 27 28  1  0  0  0
 28 29  2  0  0  0
 28 30  1  0  0  0
 30 31  1  0  0  0
 31 32  1  0  0  0
 32 33  1  0  0  0
 33 34  1  0  0  0
 34 35  1  0  0  0
 18 13  1  0  0  0
 35 30  1  0  0  0
  2  5  1  0  0  0
  7 10  1  0  0  0
 25 26  1  0  0  0
 41 43  1  0  0  0
 41 44  1  0  0  0
 42 45  1  0  0  0
 42 46  1  0  0  0
M  END
> <minimizedAffinity>
5.09367

> <CNNscore>
0.3249668777

> <CNNaffinity>
7.9182295799

> <CNN_VS>
2.5731623173

> <CNNaffinity_variance>
0.6795438528

$$$$
[H]c1c([H])c([H])c(C([H])([H])OC(=O)N([H])[C@]([H])(C(=O)N([H])[C@]([H])(C(=O)N([H])[C@]([H])(C(=O)N2C([H])([H])C([H])([H])C([H])([H])C([H])([H])C2([H])[H])C([H])([H])C([H])([H])C([H])([H])N=C(N([H])[H])N([H])[H])C([H])([H])C([H])(C([H])([H])[H])C([H])([H])[H])C([H])([H])C([H])(C([H])([H])[H])C([H])([H])[H])c([H])c1[H]


 50 51  0  0  0  0  0  0  0  0999 V2000
    8.8882   47.2973  133.6616 C   0  0  0  0  0  0  0  0  0  0  0  0
    9.2569   46.1720  132.7899 N   0  0  0  0  0  0  0  0  0  0  0  0
    8.2835   45.3985  132.1323 C   0  0  0  0  0  0  0  0  0  0  0  0
    7.0460   45.6888  132.2778 O   0  0  0  0  0  0  0  0  0  0  0  0
   10.2770   45.9975  132.6624 H   0  0  0  0  0  0  0  0  0  0  0  0
    8.5680   44.2581  131.2588 C   0  0  0  0  0  0  0  0  0  0  0  0
    9.9286   44.3222  130.8120 N   0  0  0  0  0  0  0  0  0  0  0  0
   10.5047   43.6224  129.7209 C   0  0  0  0  0  0  0  0  0  0  0  0
    9.8209   42.8214  128.9919 O   0  0  0  0  0  0  0  0  0  0  0  0
   10.5711   44.9526  131.3438 H   0  0  0  0  0  0  0  0  0  0  0  0
   11.8248   43.7527  129.3720 O   0  0  0  0  0  0  0  0  0  0  0  0
   12.8124   44.4518  130.0666 C   0  0  0  0  0  0  0  0  0  0  0  0
   12.6899   44.5055  131.5179 C   0  0  0  0  0  0  0  0  0  0  0  0
   12.7784   43.3826  132.2836 C   0  0  0  0  0  0  0  0  0  0  0  0
   12.6657   43.4564  133.6550 C   0  0  0  0  0  0  0  0  0  0  0  0
   12.4638   44.6868  134.2295 C   0  0  0  0  0  0  0  0  0  0  0  0
   12.3670   45.8653  133.4927 C   0  0  0  0  0  0  0  0  0  0  0  0
   12.4879   45.7164  132.1282 C   0  0  0  0  0  0  0  0  0  0  0  0
    8.0380   42.9381  131.6505 C   0  0  0  0  0  0  0  0  0  0  0  0
    8.8094   42.1272  132.6195 C   0  0  0  0  0  0  0  0  0  0  0  0
   10.1582   41.6730  132.0924 C   0  0  0  0  0  0  0  0  0  0  0  0
    9.1091   43.0595  133.8102 C   0  0  0  0  0  0  0  0  0  0  0  0
    9.0134   48.5672  132.8803 C   0  0  0  0  0  0  0  0  0  0  0  0
    9.5407   49.5576  133.4424 O   0  0  0  0  0  0  0  0  0  0  0  0
    8.5685   48.6942  131.5524 N   0  0  0  0  0  0  0  0  0  0  0  0
    8.1133   47.8755  131.1027 H   0  0  0  0  0  0  0  0  0  0  0  0
    8.7528   49.9745  130.8313 C   0  0  0  0  0  0  0  0  0  0  0  0
    7.4460   50.4129  130.3147 C   0  0  0  0  0  0  0  0  0  0  0  0
    7.1750   51.6277  130.2647 O   0  0  0  0  0  0  0  0  0  0  0  0
    6.4912   49.4691  129.8675 N   0  0  0  0  0  0  0  0  0  0  0  0
    6.7844   48.0487  129.8935 C   0  0  0  0  0  0  0  0  0  0  0  0
    6.0820   47.4293  128.6982 C   0  0  0  0  0  0  0  0  0  0  0  0
    4.5981   47.4175  129.0325 C   0  0  0  0  0  0  0  0  0  0  0  0
    4.1803   48.7676  129.5573 C   0  0  0  0  0  0  0  0  0  0  0  0
    5.1873   49.8532  129.3551 C   0  0  0  0  0  0  0  0  0  0  0  0
    9.7776   49.7336  129.7792 C   0  0  0  0  0  0  0  0  0  0  0  0
   10.9301   48.8828  130.2368 C   0  0  0  0  0  0  0  0  0  0  0  0
   11.0221   47.6034  129.4041 C   0  0  0  0  0  0  0  0  0  0  0  0
    9.6915   47.0078  129.2713 N   0  0  0  0  0  0  0  0  0  0  0  0
    9.5164   46.0859  128.3789 C   0  0  0  0  0  0  0  0  0  0  0  0
    8.2444   45.4860  128.2179 N   0  0  0  0  0  0  0  0  0  0  0  0
   10.5545   45.6313  127.5398 N   0  0  0  0  0  0  0  0  0  0  0  0
    7.7376   45.6191  127.3347 H   0  0  0  0  0  0  0  0  0  0  0  0
    7.8474   44.9279  128.9871 H   0  0  0  0  0  0  0  0  0  0  0  0
   11.2040   44.9004  127.8734 H   0  0  0  0  0  0  0  0  0  0  0  0
   10.6718   46.0240  126.5921 H   0  0  0  0  0  0  0  0  0  0  0  0
    9.6715   47.3812  134.9136 C   0  0  0  0  0  0  0  0  0  0  0  0
   10.1790   45.2782  136.1741 C   0  0  0  0  0  0  0  0  0  0  0  0
    9.1998   46.4147  135.9807 C   0  0  0  0  0  0  0  0  0  0  0  0
    7.9001   45.7701  135.5194 C   0  0  0  0  0  0  0  0  0  0  0  0
 48 49  1  0  0  0
 49 50  1  0  0  0
 49 47  1  0  0  0
 47  1  1  0  0  0
  1  2  1  0  0  0
  2  3  1  0  0  0
  3  4  2  0  0  0
  3  6  1  0  0  0
  6 19  1  0  0  0
 19 20  1  0  0  0
 20 21  1  0  0  0
 20 22  1  0  0  0
  6  7  1  0  0  0
  7  8  1  0  0  0
  8  9  2  0  0  0
  8 11  1  0  0  0
 11 12  1  0  0  0
 12 13  1  0  0  0
 13 14  2  0  0  0
 14 15  1  0  0  0
 15 16  2  0  0  0
 16 17  1  0  0  0
 17 18  2  0  0  0
  1 23  1  0  0  0
 23 24  2  0  0  0
 23 25  1  0  0  0
 25 27  1  0  0  0
 27 36  1  0  0  0
 36 37  1  0  0  0
 37 38  1  0  0  0
 38 39  1  0  0  0
 39 40  2  0  0  0
 40 41  1  0  0  0
 40 42  1  0  0  0
 27 28  1  0  0  0
 28 29  2  0  0  0
 28 30  1  0  0  0
 30 31  1  0  0  0
 31 32  1  0  0  0
 32 33  1  0  0  0
 33 34  1  0  0  0
 34 35  1  0  0  0
 18 13  1  0  0  0
 35 30  1  0  0  0
  2  5  1  0  0  0
  7 10  1  0  0  0
 25 26  1  0  0  0
 41 43  1  0  0  0
 41 44  1  0  0  0
 42 45  1  0  0  0
 42 46  1  0  0  0
M  END
> <minimizedAffinity>
3.91669

> <CNNscore>
0.3201772273

> <CNNaffinity>
7.9338226318

> <CNN_VS>
2.5402293205

> <CNNaffinity_variance>
0.5389760733

$$$$
[H]c1nc2c([H])c(OC([H])([H])[H])c(OC([H])([H])[H])c([H])c2c(Oc2c([H])c([H])c(N([H])C(=O)N([H])c3c([H])c([H])c(C(F)(F)F)c([H])c3[H])c([H])c2[H])c1[H]


 37 40  0  0  0  0  0  0  0  0999 V2000
    7.6114   48.1650  130.6049 C   0  0  0  0  0  0  0  0  0  0  0  0
    8.1279   49.3339  131.0947 C   0  0  0  0  0  0  0  0  0  0  0  0
    7.8723   50.5529  130.5563 C   0  0  0  0  0  0  0  0  0  0  0  0
    7.0309   50.7055  129.4188 C   0  0  0  0  0  0  0  0  0  0  0  0
    6.5125   49.5288  128.9285 C   0  0  0  0  0  0  0  0  0  0  0  0
    6.7895   48.2920  129.4966 C   0  0  0  0  0  0  0  0  0  0  0  0
    6.8001   51.9960  128.9525 N   0  0  0  0  0  0  0  0  0  0  0  0
    7.3222   52.5386  127.7160 C   0  0  0  0  0  0  0  0  0  0  0  0
    8.0058   51.7981  127.0582 O   0  0  0  0  0  0  0  0  0  0  0  0
    6.9499   53.8790  127.4459 N   0  0  0  0  0  0  0  0  0  0  0  0
    6.1752   52.6044  129.5405 H   0  0  0  0  0  0  0  0  0  0  0  0
    6.3476   54.4080  128.1551 H   0  0  0  0  0  0  0  0  0  0  0  0
    7.3378   54.5631  126.2727 C   0  0  0  0  0  0  0  0  0  0  0  0
    7.0552   53.9664  125.0418 C   0  0  0  0  0  0  0  0  0  0  0  0
    7.5241   54.5573  123.8778 C   0  0  0  0  0  0  0  0  0  0  0  0
    8.2627   55.7178  123.8688 C   0  0  0  0  0  0  0  0  0  0  0  0
    8.5422   56.3218  125.0800 C   0  0  0  0  0  0  0  0  0  0  0  0
    8.0788   55.7377  126.2465 C   0  0  0  0  0  0  0  0  0  0  0  0
    8.8516   56.1861  122.5794 C   0  0  0  0  0  0  0  0  0  0  0  0
    9.1338   55.0233  121.8352 F   0  0  0  0  0  0  0  0  0  0  0  0
    9.9937   56.9103  122.7774 F   0  0  0  0  0  0  0  0  0  0  0  0
    7.9462   56.9109  121.8845 F   0  0  0  0  0  0  0  0  0  0  0  0
    7.9184   47.0039  131.1954 O   0  0  0  0  0  0  0  0  0  0  0  0
   10.7513   43.0073  131.7761 C   0  0  0  0  0  0  0  0  0  0  0  0
   10.9018   43.7380  132.9202 C   0  0  0  0  0  0  0  0  0  0  0  0
   10.2228   44.9462  133.0775 C   0  0  0  0  0  0  0  0  0  0  0  0
   10.3549   45.6816  134.1824 N   0  0  0  0  0  0  0  0  0  0  0  0
    9.7154   46.8535  134.3673 C   0  0  0  0  0  0  0  0  0  0  0  0
    8.8762   47.3508  133.3886 C   0  0  0  0  0  0  0  0  0  0  0  0
    8.7020   46.6422  132.2321 C   0  0  0  0  0  0  0  0  0  0  0  0
    9.3927   45.4248  132.0927 C   0  0  0  0  0  0  0  0  0  0  0  0
    9.2654   44.6580  130.9477 C   0  0  0  0  0  0  0  0  0  0  0  0
    9.9120   43.4693  130.7524 C   0  0  0  0  0  0  0  0  0  0  0  0
   11.1547   40.5551  132.0331 C   0  0  0  0  0  0  0  0  0  0  0  0
   11.3773   41.8333  131.5679 O   0  0  0  0  0  0  0  0  0  0  0  0
    9.7657   42.7156  129.5924 O   0  0  0  0  0  0  0  0  0  0  0  0
    9.8278   43.2945  128.3112 C   0  0  0  0  0  0  0  0  0  0  0  0
 34 35  1  0  0  0
 35 24  1  0  0  0
 24 25  2  0  0  0
 25 26  1  0  0  0
 26 27  2  0  0  0
 27 28  1  0  0  0
 28 29  2  0  0  0
 29 30  1  0  0  0
 30 23  1  0  0  0
 23  1  1  0  0  0
  1  2  2  0  0  0
  2  3  1  0  0  0
  3  4  2  0  0  0
  4  7  1  0  0  0
  7  8  1  0  0  0
  8  9  2  0  0  0
  8 10  1  0  0  0
 10 13  1  0  0  0
 13 14  2  0  0  0
 14 15  1  0  0  0
 15 16  2  0  0  0
 16 17  1  0  0  0
 17 18  2  0  0  0
 16 19  1  0  0  0
 19 20  1  0  0  0
 19 21  1  0  0  0
 19 22  1  0  0  0
  4  5  1  0  0  0
  5  6  2  0  0  0
 30 31  2  0  0  0
 31 32  1  0  0  0
 32 33  2  0  0  0
 33 36  1  0  0  0
 36 37  1  0  0  0
 33 24  1  0  0  0
 31 26  1  0  0  0
  6  1  1  0  0  0
 18 13  1  0  0  0
  7 11  1  0  0  0
 10 12  1  0  0  0
M  END
> <minimizedAffinity>
-2.92721

> <CNNscore>
0.5790578723

> <CNNaffinity>
7.2624540329

> <CNN_VS>
4.2053813934

> <CNNaffinity_variance>
0.5601904988

$$$$
[H]c1nc2c([H])c(OC([H])([H])[H])c(OC([H])([H])[H])c([H])c2c(Oc2c([H])c([H])c(N([H])C(=O)N([H])c3c([H])c([H])c(C(F)(F)F)c([H])c3[H])c([H])c2[H])c1[H]


 37 40  0  0  0  0  0  0  0  0999 V2000
    6.8657   52.6421  127.8809 C   0  0  0  0  0  0  0  0  0  0  0  0
    7.0222   51.3889  127.3539 C   0  0  0  0  0  0  0  0  0  0  0  0
    7.1379   50.2657  128.1065 C   0  0  0  0  0  0  0  0  0  0  0  0
    7.1043   50.3126  129.5283 C   0  0  0  0  0  0  0  0  0  0  0  0
    6.9464   51.5738  130.0557 C   0  0  0  0  0  0  0  0  0  0  0  0
    6.8309   52.7094  129.2644 C   0  0  0  0  0  0  0  0  0  0  0  0
    7.1997   49.1081  130.2184 N   0  0  0  0  0  0  0  0  0  0  0  0
    8.4283   48.5391  130.7309 C   0  0  0  0  0  0  0  0  0  0  0  0
    9.4309   49.1744  130.5325 O   0  0  0  0  0  0  0  0  0  0  0  0
    8.2793   47.3018  131.4057 N   0  0  0  0  0  0  0  0  0  0  0  0
    6.2989   48.5952  130.3973 H   0  0  0  0  0  0  0  0  0  0  0  0
    7.3083   46.8572  131.4754 H   0  0  0  0  0  0  0  0  0  0  0  0
    9.3612   46.6150  131.9996 C   0  0  0  0  0  0  0  0  0  0  0  0
    9.7627   45.4050  131.4286 C   0  0  0  0  0  0  0  0  0  0  0  0
   10.7449   44.6522  132.0549 C   0  0  0  0  0  0  0  0  0  0  0  0
   11.3561   45.0384  133.2253 C   0  0  0  0  0  0  0  0  0  0  0  0
   10.9729   46.2374  133.7957 C   0  0  0  0  0  0  0  0  0  0  0  0
    9.9923   46.9942  133.1774 C   0  0  0  0  0  0  0  0  0  0  0  0
   12.2862   44.0853  133.9000 C   0  0  0  0  0  0  0  0  0  0  0  0
   12.7294   43.1988  132.8983 F   0  0  0  0  0  0  0  0  0  0  0  0
   11.6646   43.3947  134.9022 F   0  0  0  0  0  0  0  0  0  0  0  0
   13.3674   44.7417  134.3775 F   0  0  0  0  0  0  0  0  0  0  0  0
    6.7630   53.6980  127.0649 O   0  0  0  0  0  0  0  0  0  0  0  0
    7.6913   55.2191  122.4650 C   0  0  0  0  0  0  0  0  0  0  0  0
    8.4991   55.9674  123.2732 C   0  0  0  0  0  0  0  0  0  0  0  0
    8.4788   55.7802  124.6552 C   0  0  0  0  0  0  0  0  0  0  0  0
    9.2539   56.5000  125.4678 N   0  0  0  0  0  0  0  0  0  0  0  0
    9.2590   56.3467  126.8067 C   0  0  0  0  0  0  0  0  0  0  0  0
    8.4354   55.4114  127.4037 C   0  0  0  0  0  0  0  0  0  0  0  0
    7.6161   54.6444  126.6224 C   0  0  0  0  0  0  0  0  0  0  0  0
    7.6524   54.8454  125.2307 C   0  0  0  0  0  0  0  0  0  0  0  0
    6.8481   54.1066  124.3807 C   0  0  0  0  0  0  0  0  0  0  0  0
    6.8363   54.2576  123.0219 C   0  0  0  0  0  0  0  0  0  0  0  0
    8.1053   56.3427  120.2723 C   0  0  0  0  0  0  0  0  0  0  0  0
    7.6688   55.3517  121.1250 O   0  0  0  0  0  0  0  0  0  0  0  0
    6.0193   53.5007  122.1885 O   0  0  0  0  0  0  0  0  0  0  0  0
    4.6336   53.7268  122.0926 C   0  0  0  0  0  0  0  0  0  0  0  0
 34 35  1  0  0  0
 35 24  1  0  0  0
 24 25  2  0  0  0
 25 26  1  0  0  0
 26 27  2  0  0  0
 27 28  1  0  0  0
 28 29  2  0  0  0
 29 30  1  0  0  0
 30 23  1  0  0  0
 23  1  1  0  0  0
  1  2  2  0  0  0
  2  3  1  0  0  0
  3  4  2  0  0  0
  4  7  1  0  0  0
  7  8  1  0  0  0
  8  9  2  0  0  0
  8 10  1  0  0  0
 10 13  1  0  0  0
 13 14  2  0  0  0
 14 15  1  0  0  0
 15 16  2  0  0  0
 16 17  1  0  0  0
 17 18  2  0  0  0
 16 19  1  0  0  0
 19 20  1  0  0  0
 19 21  1  0  0  0
 19 22  1  0  0  0
  4  5  1  0  0  0
  5  6  2  0  0  0
 30 31  2  0  0  0
 31 32  1  0  0  0
 32 33  2  0  0  0
 33 36  1  0  0  0
 36 37  1  0  0  0
 33 24  1  0  0  0
 31 26  1  0  0  0
  6  1  1  0  0  0
 18 13  1  0  0  0
  7 11  1  0  0  0
 10 12  1  0  0  0
M  END
> <minimizedAffinity>
3.42679

> <CNNscore>
0.5069873929

> <CNNaffinity>
6.6803894043

> <CNN_VS>
3.3868732452

> <CNNaffinity_variance>
0.4770978391

$$$$
[H]c1nc2c([H])c(OC([H])([H])[H])c(OC([H])([H])[H])c([H])c2c(Oc2c([H])c([H])c(N([H])C(=O)N([H])c3c([H])c([H])c(C(F)(F)F)c([H])c3[H])c([H])c2[H])c1[H]


 37 40  0  0  0  0  0  0  0  0999 V2000
    7.5994   47.0250  131.1754 C   0  0  0  0  0  0  0  0  0  0  0  0
    8.0457   48.2086  131.6978 C   0  0  0  0  0  0  0  0  0  0  0  0
    7.7649   49.4219  131.1590 C   0  0  0  0  0  0  0  0  0  0  0  0
    6.9693   49.5522  129.9864 C   0  0  0  0  0  0  0  0  0  0  0  0
    6.5215   48.3607  129.4633 C   0  0  0  0  0  0  0  0  0  0  0  0
    6.8230   47.1303  130.0326 C   0  0  0  0  0  0  0  0  0  0  0  0
    6.7070   50.8371  129.5213 N   0  0  0  0  0  0  0  0  0  0  0  0
    7.2659   51.4152  128.3173 C   0  0  0  0  0  0  0  0  0  0  0  0
    8.0118   50.7117  127.6873 O   0  0  0  0  0  0  0  0  0  0  0  0
    6.8506   52.7419  128.0416 N   0  0  0  0  0  0  0  0  0  0  0  0
    6.0287   51.4120  130.0831 H   0  0  0  0  0  0  0  0  0  0  0  0
    6.1923   53.2370  128.7249 H   0  0  0  0  0  0  0  0  0  0  0  0
    7.2664   53.4550  126.8955 C   0  0  0  0  0  0  0  0  0  0  0  0
    6.9087   54.8016  126.7954 C   0  0  0  0  0  0  0  0  0  0  0  0
    7.2031   55.4970  125.6321 C   0  0  0  0  0  0  0  0  0  0  0  0
    7.8394   54.9249  124.5549 C   0  0  0  0  0  0  0  0  0  0  0  0
    8.2053   53.5953  124.6450 C   0  0  0  0  0  0  0  0  0  0  0  0
    7.9139   52.8937  125.8024 C   0  0  0  0  0  0  0  0  0  0  0  0
    7.9695   55.7133  123.2939 C   0  0  0  0  0  0  0  0  0  0  0  0
    9.3496   55.9333  123.1129 F   0  0  0  0  0  0  0  0  0  0  0  0
    7.3060   56.9056  123.3710 F   0  0  0  0  0  0  0  0  0  0  0  0
    7.5254   54.9918  122.2401 F   0  0  0  0  0  0  0  0  0  0  0  0
    7.9270   45.8711  131.7691 O   0  0  0  0  0  0  0  0  0  0  0  0
   12.4639   44.2092  130.7746 C   0  0  0  0  0  0  0  0  0  0  0  0
   12.3572   44.2040  132.1363 C   0  0  0  0  0  0  0  0  0  0  0  0
   11.1776   44.6239  132.7509 C   0  0  0  0  0  0  0  0  0  0  0  0
   11.0480   44.6329  134.0783 N   0  0  0  0  0  0  0  0  0  0  0  0
    9.9242   45.0331  134.7054 C   0  0  0  0  0  0  0  0  0  0  0  0
    8.8338   45.4629  133.9734 C   0  0  0  0  0  0  0  0  0  0  0  0
    8.9074   45.4780  132.6079 C   0  0  0  0  0  0  0  0  0  0  0  0
   10.1039   45.0484  132.0060 C   0  0  0  0  0  0  0  0  0  0  0  0
   10.2488   45.0405  130.6297 C   0  0  0  0  0  0  0  0  0  0  0  0
   11.3861   44.6376  129.9868 C   0  0  0  0  0  0  0  0  0  0  0  0
   14.4784   44.4740  129.3206 C   0  0  0  0  0  0  0  0  0  0  0  0
   13.5746   43.8129  130.1243 O   0  0  0  0  0  0  0  0  0  0  0  0
   11.5062   44.6371  128.6009 O   0  0  0  0  0  0  0  0  0  0  0  0
   10.6075   43.9399  127.7722 C   0  0  0  0  0  0  0  0  0  0  0  0
 34 35  1  0  0  0
 35 24  1  0  0  0
 24 25  2  0  0  0
 25 26  1  0  0  0
 26 27  2  0  0  0
 27 28  1  0  0  0
 28 29  2  0  0  0
 29 30  1  0  0  0
 30 23  1  0  0  0
 23  1  1  0  0  0
  1  2  2  0  0  0
  2  3  1  0  0  0
  3  4  2  0  0  0
  4  7  1  0  0  0
  7  8  1  0  0  0
  8  9  2  0  0  0
  8 10  1  0  0  0
 10 13  1  0  0  0
 13 14  2  0  0  0
 14 15  1  0  0  0
 15 16  2  0  0  0
 16 17  1  0  0  0
 17 18  2  0  0  0
 16 19  1  0  0  0
 19 20  1  0  0  0
 19 21  1  0  0  0
 19 22  1  0  0  0
  4  5  1  0  0  0
  5  6  2  0  0  0
 30 31  2  0  0  0
 31 32  1  0  0  0
 32 33  2  0  0  0
 33 36  1  0  0  0
 36 37  1  0  0  0
 33 24  1  0  0  0
 31 26  1  0  0  0
  6  1  1  0  0  0
 18 13  1  0  0  0
  7 11  1  0  0  0
 10 12  1  0  0  0
M  END
> <minimizedAffinity>
-1.70663

> <CNNscore>
0.5038876534

> <CNNaffinity>
7.2201776505

> <CNN_VS>
3.6381583214

> <CNNaffinity_variance>
0.4059808850

$$$$
[H]c1nc2c([H])c(OC([H])([H])[H])c(OC([H])([H])[H])c([H])c2c(Oc2c([H])c([H])c(N([H])C(=O)N([H])c3c([H])c([H])c(C(F)(F)F)c([H])c3[H])c([H])c2[H])c1[H]


 37 40  0  0  0  0  0  0  0  0999 V2000
    7.5877   48.0350  130.6642 C   0  0  0  0  0  0  0  0  0  0  0  0
    8.1645   49.1936  131.1088 C   0  0  0  0  0  0  0  0  0  0  0  0
    7.8975   50.4162  130.5840 C   0  0  0  0  0  0  0  0  0  0  0  0
    6.9789   50.5835  129.5101 C   0  0  0  0  0  0  0  0  0  0  0  0
    6.4001   49.4170  129.0652 C   0  0  0  0  0  0  0  0  0  0  0  0
    6.6901   48.1764  129.6182 C   0  0  0  0  0  0  0  0  0  0  0  0
    6.7434   51.8772  129.0550 N   0  0  0  0  0  0  0  0  0  0  0  0
    7.3024   52.4480  127.8477 C   0  0  0  0  0  0  0  0  0  0  0  0
    8.0231   51.7297  127.2052 O   0  0  0  0  0  0  0  0  0  0  0  0
    6.9172   53.7860  127.5840 N   0  0  0  0  0  0  0  0  0  0  0  0
    6.0862   52.4656  129.6280 H   0  0  0  0  0  0  0  0  0  0  0  0
    6.2794   54.2935  128.2777 H   0  0  0  0  0  0  0  0  0  0  0  0
    7.3372   54.4951  126.4369 C   0  0  0  0  0  0  0  0  0  0  0  0
    6.8896   54.0506  125.1907 C   0  0  0  0  0  0  0  0  0  0  0  0
    7.3751   54.6546  124.0404 C   0  0  0  0  0  0  0  0  0  0  0  0
    8.2868   55.6847  124.0598 C   0  0  0  0  0  0  0  0  0  0  0  0
    8.7313   56.1384  125.2871 C   0  0  0  0  0  0  0  0  0  0  0  0
    8.2524   55.5400  126.4401 C   0  0  0  0  0  0  0  0  0  0  0  0
    8.8636   56.1597  122.7674 C   0  0  0  0  0  0  0  0  0  0  0  0
    9.1108   55.0022  122.0026 F   0  0  0  0  0  0  0  0  0  0  0  0
   10.0226   56.8588  122.9564 F   0  0  0  0  0  0  0  0  0  0  0  0
    7.9612   56.9115  122.0977 F   0  0  0  0  0  0  0  0  0  0  0  0
    7.9111   46.8694  131.2370 O   0  0  0  0  0  0  0  0  0  0  0  0
   12.2510   44.5991  130.6480 C   0  0  0  0  0  0  0  0  0  0  0  0
   12.1076   44.7819  131.9940 C   0  0  0  0  0  0  0  0  0  0  0  0
   10.9682   45.4061  132.5016 C   0  0  0  0  0  0  0  0  0  0  0  0
   10.8047   45.6010  133.8109 N   0  0  0  0  0  0  0  0  0  0  0  0
    9.7181   46.2012  134.3356 C   0  0  0  0  0  0  0  0  0  0  0  0
    8.7048   46.6512  133.5108 C   0  0  0  0  0  0  0  0  0  0  0  0
    8.8166   46.4815  132.1584 C   0  0  0  0  0  0  0  0  0  0  0  0
    9.9712   45.8474  131.6654 C   0  0  0  0  0  0  0  0  0  0  0  0
   10.1514   45.6456  130.3081 C   0  0  0  0  0  0  0  0  0  0  0  0
   11.2515   45.0392  129.7686 C   0  0  0  0  0  0  0  0  0  0  0  0
   14.3579   44.4643  129.3121 C   0  0  0  0  0  0  0  0  0  0  0  0
   13.3256   44.0011  130.0993 O   0  0  0  0  0  0  0  0  0  0  0  0
   11.4082   44.8462  128.4000 O   0  0  0  0  0  0  0  0  0  0  0  0
   10.5554   44.0059  127.6603 C   0  0  0  0  0  0  0  0  0  0  0  0
 34 35  1  0  0  0
 35 24  1  0  0  0
 24 25  2  0  0  0
 25 26  1  0  0  0
 26 27  2  0  0  0
 27 28  1  0  0  0
 28 29  2  0  0  0
 29 30  1  0  0  0
 30 23  1  0  0  0
 23  1  1  0  0  0
  1  2  2  0  0  0
  2  3  1  0  0  0
  3  4  2  0  0  0
  4  7  1  0  0  0
  7  8  1  0  0  0
  8  9  2  0  0  0
  8 10  1  0  0  0
 10 13  1  0  0  0
 13 14  2  0  0  0
 14 15  1  0  0  0
 15 16  2  0  0  0
 16 17  1  0  0  0
 17 18  2  0  0  0
 16 19  1  0  0  0
 19 20  1  0  0  0
 19 21  1  0  0  0
 19 22  1  0  0  0
  4  5  1  0  0  0
  5  6  2  0  0  0
 30 31  2  0  0  0
 31 32  1  0  0  0
 32 33  2  0  0  0
 33 36  1  0  0  0
 36 37  1  0  0  0
 33 24  1  0  0  0
 31 26  1  0  0  0
  6  1  1  0  0  0
 18 13  1  0  0  0
  7 11  1  0  0  0
 10 12  1  0  0  0
M  END
> <minimizedAffinity>
-3.90231

> <CNNscore>
0.4881443083

> <CNNaffinity>
7.2046632767

> <CNN_VS>
3.5169153214

> <CNNaffinity_variance>
0.3820527196

$$$$
[H]c1nc2c([H])c(OC([H])([H])[H])c(OC([H])([H])[H])c([H])c2c(Oc2c([H])c([H])c(N([H])C(=O)N([H])c3c([H])c([H])c(C(F)(F)F)c([H])c3[H])c([H])c2[H])c1[H]


 37 40  0  0  0  0  0  0  0  0999 V2000
    6.9182   52.5749  128.4085 C   0  0  0  0  0  0  0  0  0  0  0  0
    7.2418   51.4733  127.6638 C   0  0  0  0  0  0  0  0  0  0  0  0
    7.2885   50.2135  128.1658 C   0  0  0  0  0  0  0  0  0  0  0  0
    6.9982   49.9428  129.5323 C   0  0  0  0  0  0  0  0  0  0  0  0
    6.6727   51.0521  130.2788 C   0  0  0  0  0  0  0  0  0  0  0  0
    6.6324   52.3326  129.7424 C   0  0  0  0  0  0  0  0  0  0  0  0
    7.0411   48.6172  129.9532 N   0  0  0  0  0  0  0  0  0  0  0  0
    8.1716   47.9877  130.6026 C   0  0  0  0  0  0  0  0  0  0  0  0
    9.1367   48.6841  130.7812 O   0  0  0  0  0  0  0  0  0  0  0  0
    7.9829   46.6257  130.9455 N   0  0  0  0  0  0  0  0  0  0  0  0
    6.1691   48.0478  129.8056 H   0  0  0  0  0  0  0  0  0  0  0  0
    7.0607   46.1451  130.6925 H   0  0  0  0  0  0  0  0  0  0  0  0
    8.9628   45.8582  131.6132 C   0  0  0  0  0  0  0  0  0  0  0  0
    8.7959   45.6280  132.9808 C   0  0  0  0  0  0  0  0  0  0  0  0
    9.7968   44.9766  133.6862 C   0  0  0  0  0  0  0  0  0  0  0  0
   10.9627   44.5365  133.1035 C   0  0  0  0  0  0  0  0  0  0  0  0
   11.1360   44.7515  131.7494 C   0  0  0  0  0  0  0  0  0  0  0  0
   10.1421   45.4021  131.0383 C   0  0  0  0  0  0  0  0  0  0  0  0
   12.0418   43.9884  133.9774 C   0  0  0  0  0  0  0  0  0  0  0  0
   12.7059   43.0111  133.2095 F   0  0  0  0  0  0  0  0  0  0  0  0
   11.5358   43.4310  135.1181 F   0  0  0  0  0  0  0  0  0  0  0  0
   12.9382   44.9543  134.2800 F   0  0  0  0  0  0  0  0  0  0  0  0
    6.8996   53.7834  127.8337 O   0  0  0  0  0  0  0  0  0  0  0  0
    4.6139   54.7570  123.5719 C   0  0  0  0  0  0  0  0  0  0  0  0
    5.9171   55.1209  123.3854 C   0  0  0  0  0  0  0  0  0  0  0  0
    6.8438   54.9703  124.4168 C   0  0  0  0  0  0  0  0  0  0  0  0
    8.1214   55.3214  124.2631 N   0  0  0  0  0  0  0  0  0  0  0  0
    9.0429   55.1910  125.2380 C   0  0  0  0  0  0  0  0  0  0  0  0
    8.6859   54.6751  126.4692 C   0  0  0  0  0  0  0  0  0  0  0  0
    7.3893   54.2990  126.6875 C   0  0  0  0  0  0  0  0  0  0  0  0
    6.4698   54.4556  125.6347 C   0  0  0  0  0  0  0  0  0  0  0  0
    5.1414   54.0987  125.7871 C   0  0  0  0  0  0  0  0  0  0  0  0
    4.2008   54.2295  124.8035 C   0  0  0  0  0  0  0  0  0  0  0  0
    3.3265   54.0874  121.5381 C   0  0  0  0  0  0  0  0  0  0  0  0
    3.6749   54.8755  122.6138 O   0  0  0  0  0  0  0  0  0  0  0  0
    2.8712   53.8613  124.9810 O   0  0  0  0  0  0  0  0  0  0  0  0
    2.1836   54.0980  126.1859 C   0  0  0  0  0  0  0  0  0  0  0  0
 34 35  1  0  0  0
 35 24  1  0  0  0
 24 25  2  0  0  0
 25 26  1  0  0  0
 26 27  2  0  0  0
 27 28  1  0  0  0
 28 29  2  0  0  0
 29 30  1  0  0  0
 30 23  1  0  0  0
 23  1  1  0  0  0
  1  2  2  0  0  0
  2  3  1  0  0  0
  3  4  2  0  0  0
  4  7  1  0  0  0
  7  8  1  0  0  0
  8  9  2  0  0  0
  8 10  1  0  0  0
 10 13  1  0  0  0
 13 14  2  0  0  0
 14 15  1  0  0  0
 15 16  2  0  0  0
 16 17  1  0  0  0
 17 18  2  0  0  0
 16 19  1  0  0  0
 19 20  1  0  0  0
 19 21  1  0  0  0
 19 22  1  0  0  0
  4  5  1  0  0  0
  5  6  2  0  0  0
 30 31  2  0  0  0
 31 32  1  0  0  0
 32 33  2  0  0  0
 33 36  1  0  0  0
 36 37  1  0  0  0
 33 24  1  0  0  0
 31 26  1  0  0  0
  6  1  1  0  0  0
 18 13  1  0  0  0
  7 11  1  0  0  0
 10 12  1  0  0  0
M  END
> <minimizedAffinity>
2.18452

> <CNNscore>
0.4843761921

> <CNNaffinity>
6.6765580177

> <CNN_VS>
3.2339656353

> <CNNaffinity_variance>
0.6188686490

$$$$
[H]c1nc2c([H])c(OC([H])([H])[H])c(OC([H])([H])[H])c([H])c2c(Oc2c([H])c([H])c(N([H])C(=O)N([H])c3c([H])c([H])c(C(F)(F)F)c([H])c3[H])c([H])c2[H])c1[H]


 37 40  0  0  0  0  0  0  0  0999 V2000
    8.0038   47.5848  131.2875 C   0  0  0  0  0  0  0  0  0  0  0  0
    7.1289   46.8136  130.5715 C   0  0  0  0  0  0  0  0  0  0  0  0
    6.2869   47.3087  129.6296 C   0  0  0  0  0  0  0  0  0  0  0  0
    6.2531   48.6957  129.3130 C   0  0  0  0  0  0  0  0  0  0  0  0
    7.1340   49.4689  130.0341 C   0  0  0  0  0  0  0  0  0  0  0  0
    7.9860   48.9389  130.9944 C   0  0  0  0  0  0  0  0  0  0  0  0
    5.3797   49.1104  128.3123 N   0  0  0  0  0  0  0  0  0  0  0  0
    4.3340   50.0977  128.4787 C   0  0  0  0  0  0  0  0  0  0  0  0
    4.2313   50.5827  129.5753 O   0  0  0  0  0  0  0  0  0  0  0  0
    3.5700   50.3625  127.3149 N   0  0  0  0  0  0  0  0  0  0  0  0
    5.5183   48.6850  127.3603 H   0  0  0  0  0  0  0  0  0  0  0  0
    3.7804   49.8209  126.4161 H   0  0  0  0  0  0  0  0  0  0  0  0
    2.5302   51.3177  127.2788 C   0  0  0  0  0  0  0  0  0  0  0  0
    2.8521   52.6237  126.9019 C   0  0  0  0  0  0  0  0  0  0  0  0
    1.8774   53.6083  126.9669 C   0  0  0  0  0  0  0  0  0  0  0  0
    0.5903   53.3654  127.3875 C   0  0  0  0  0  0  0  0  0  0  0  0
    0.2576   52.0756  127.7555 C   0  0  0  0  0  0  0  0  0  0  0  0
    1.2251   51.0871  127.6947 C   0  0  0  0  0  0  0  0  0  0  0  0
   -0.3373   54.5207  127.5701 C   0  0  0  0  0  0  0  0  0  0  0  0
   -0.7543   54.4762  128.9155 F   0  0  0  0  0  0  0  0  0  0  0  0
   -1.4174   54.4398  126.7367 F   0  0  0  0  0  0  0  0  0  0  0  0
    0.3205   55.6866  127.3807 F   0  0  0  0  0  0  0  0  0  0  0  0
    8.7975   47.0145  132.2019 O   0  0  0  0  0  0  0  0  0  0  0  0
   10.6014   42.4238  132.1228 C   0  0  0  0  0  0  0  0  0  0  0  0
   11.6890   43.2490  132.1666 C   0  0  0  0  0  0  0  0  0  0  0  0
   11.5206   44.6332  132.1988 C   0  0  0  0  0  0  0  0  0  0  0  0
   12.5651   45.4619  132.2376 N   0  0  0  0  0  0  0  0  0  0  0  0
   12.4394   46.8034  132.2681 C   0  0  0  0  0  0  0  0  0  0  0  0
   11.1863   47.3858  132.2583 C   0  0  0  0  0  0  0  0  0  0  0  0
   10.0768   46.5874  132.2171 C   0  0  0  0  0  0  0  0  0  0  0  0
   10.2663   45.1940  132.1879 C   0  0  0  0  0  0  0  0  0  0  0  0
    9.1885   44.3270  132.1426 C   0  0  0  0  0  0  0  0  0  0  0  0
    9.3083   42.9655  132.1097 C   0  0  0  0  0  0  0  0  0  0  0  0
   11.7740   40.2201  132.0199 C   0  0  0  0  0  0  0  0  0  0  0  0
   10.7002   41.0811  132.0934 O   0  0  0  0  0  0  0  0  0  0  0  0
    8.2084   42.1149  132.0664 O   0  0  0  0  0  0  0  0  0  0  0  0
    7.4108   41.9813  130.9147 C   0  0  0  0  0  0  0  0  0  0  0  0
 34 35  1  0  0  0
 35 24  1  0  0  0
 24 25  2  0  0  0
 25 26  1  0  0  0
 26 27  2  0  0  0
 27 28  1  0  0  0
 28 29  2  0  0  0
 29 30  1  0  0  0
 30 23  1  0  0  0
 23  1  1  0  0  0
  1  2  2  0  0  0
  2  3  1  0  0  0
  3  4  2  0  0  0
  4  7  1  0  0  0
  7  8  1  0  0  0
  8  9  2  0  0  0
  8 10  1  0  0  0
 10 13  1  0  0  0
 13 14  2  0  0  0
 14 15  1  0  0  0
 15 16  2  0  0  0
 16 17  1  0  0  0
 17 18  2  0  0  0
 16 19  1  0  0  0
 19 20  1  0  0  0
 19 21  1  0  0  0
 19 22  1  0  0  0
  4  5  1  0  0  0
  5  6  2  0  0  0
 30 31  2  0  0  0
 31 32  1  0  0  0
 32 33  2  0  0  0
 33 36  1  0  0  0
 36 37  1  0  0  0
 33 24  1  0  0  0
 31 26  1  0  0  0
  6  1  1  0  0  0
 18 13  1  0  0  0
  7 11  1  0  0  0
 10 12  1  0  0  0
M  END
> <minimizedAffinity>
14.11305

> <CNNscore>
0.4766505063

> <CNNaffinity>
6.8468260765

> <CNN_VS>
3.2635431290

> <CNNaffinity_variance>
0.6139155626

$$$$
[H]c1nc2c([H])c(OC([H])([H])[H])c(OC([H])([H])[H])c([H])c2c(Oc2c([H])c([H])c(N([H])C(=O)N([H])c3c([H])c([H])c(C(F)(F)F)c([H])c3[H])c([H])c2[H])c1[H]


 37 40  0  0  0  0  0  0  0  0999 V2000
    7.3097   47.7213  130.0809 C   0  0  0  0  0  0  0  0  0  0  0  0
    6.3355   48.1742  129.2332 C   0  0  0  0  0  0  0  0  0  0  0  0
    6.1736   49.4805  128.9032 C   0  0  0  0  0  0  0  0  0  0  0  0
    7.0238   50.4941  129.4273 C   0  0  0  0  0  0  0  0  0  0  0  0
    8.0028   50.0360  130.2791 C   0  0  0  0  0  0  0  0  0  0  0  0
    8.1483   48.6931  130.6026 C   0  0  0  0  0  0  0  0  0  0  0  0
    6.8036   51.8033  129.0106 N   0  0  0  0  0  0  0  0  0  0  0  0
    7.3213   52.3852  127.7902 C   0  0  0  0  0  0  0  0  0  0  0  0
    7.9909   51.6620  127.0996 O   0  0  0  0  0  0  0  0  0  0  0  0
    6.9618   53.7386  127.5727 N   0  0  0  0  0  0  0  0  0  0  0  0
    6.1906   52.3966  129.6260 H   0  0  0  0  0  0  0  0  0  0  0  0
    6.3716   54.2478  128.3062 H   0  0  0  0  0  0  0  0  0  0  0  0
    7.3474   54.4611  126.4220 C   0  0  0  0  0  0  0  0  0  0  0  0
    6.9401   53.9769  125.1766 C   0  0  0  0  0  0  0  0  0  0  0  0
    7.3977   54.5987  124.0243 C   0  0  0  0  0  0  0  0  0  0  0  0
    8.2430   55.6839  124.0408 C   0  0  0  0  0  0  0  0  0  0  0  0
    8.6468   56.1769  125.2670 C   0  0  0  0  0  0  0  0  0  0  0  0
    8.1954   55.5612  126.4220 C   0  0  0  0  0  0  0  0  0  0  0  0
    8.8011   56.1812  122.7485 C   0  0  0  0  0  0  0  0  0  0  0  0
    9.0773   55.0348  121.9769 F   0  0  0  0  0  0  0  0  0  0  0  0
    9.9409   56.9114  122.9364 F   0  0  0  0  0  0  0  0  0  0  0  0
    7.8754   56.9109  122.0861 F   0  0  0  0  0  0  0  0  0  0  0  0
    7.3963   46.4143  130.3557 O   0  0  0  0  0  0  0  0  0  0  0  0
   11.1967   44.6135  132.9343 C   0  0  0  0  0  0  0  0  0  0  0  0
   11.1702   43.9033  131.7679 C   0  0  0  0  0  0  0  0  0  0  0  0
   10.1992   44.1715  130.8031 C   0  0  0  0  0  0  0  0  0  0  0  0
   10.1477   43.4904  129.6575 N   0  0  0  0  0  0  0  0  0  0  0  0
    9.2233   43.7220  128.7045 C   0  0  0  0  0  0  0  0  0  0  0  0
    8.2658   44.7016  128.8866 C   0  0  0  0  0  0  0  0  0  0  0  0
    8.2663   45.4322  130.0426 C   0  0  0  0  0  0  0  0  0  0  0  0
    9.2548   45.1495  131.0024 C   0  0  0  0  0  0  0  0  0  0  0  0
    9.3125   45.8477  132.1959 C   0  0  0  0  0  0  0  0  0  0  0  0
   10.2461   45.6173  133.1677 C   0  0  0  0  0  0  0  0  0  0  0  0
   12.0866   43.6794  135.0738 C   0  0  0  0  0  0  0  0  0  0  0  0
   12.1105   44.4027  133.9007 O   0  0  0  0  0  0  0  0  0  0  0  0
   10.2842   46.3348  134.3589 O   0  0  0  0  0  0  0  0  0  0  0  0
    9.1921   46.3712  135.2457 C   0  0  0  0  0  0  0  0  0  0  0  0
 34 35  1  0  0  0
 35 24  1  0  0  0
 24 25  2  0  0  0
 25 26  1  0  0  0
 26 27  2  0  0  0
 27 28  1  0  0  0
 28 29  2  0  0  0
 29 30  1  0  0  0
 30 23  1  0  0  0
 23  1  1  0  0  0
  1  2  2  0  0  0
  2  3  1  0  0  0
  3  4  2  0  0  0
  4  7  1  0  0  0
  7  8  1  0  0  0
  8  9  2  0  0  0
  8 10  1  0  0  0
 10 13  1  0  0  0
 13 14  2  0  0  0
 14 15  1  0  0  0
 15 16  2  0  0  0
 16 17  1  0  0  0
 17 18  2  0  0  0
 16 19  1  0  0  0
 19 20  1  0  0  0
 19 21  1  0  0  0
 19 22  1  0  0  0
  4  5  1  0  0  0
  5  6  2  0  0  0
 30 31  2  0  0  0
 31 32  1  0  0  0
 32 33  2  0  0  0
 33 36  1  0  0  0
 36 37  1  0  0  0
 33 24  1  0  0  0
 31 26  1  0  0  0
  6  1  1  0  0  0
 18 13  1  0  0  0
  7 11  1  0  0  0
 10 12  1  0  0  0
M  END
> <minimizedAffinity>
-3.86510

> <CNNscore>
0.4727499187

> <CNNaffinity>
7.1867585182

> <CNN_VS>
3.3975396156

> <CNNaffinity_variance>
0.1782688648

$$$$
[H]c1nc2c([H])c(OC([H])([H])[H])c(OC([H])([H])[H])c([H])c2c(Oc2c([H])c([H])c(N([H])C(=O)N([H])c3c([H])c([H])c(C(F)(F)F)c([H])c3[H])c([H])c2[H])c1[H]


 37 40  0  0  0  0  0  0  0  0999 V2000
    7.0421   52.9827  128.2679 C   0  0  0  0  0  0  0  0  0  0  0  0
    7.3127   51.9012  127.4743 C   0  0  0  0  0  0  0  0  0  0  0  0
    7.2136   50.6153  127.8962 C   0  0  0  0  0  0  0  0  0  0  0  0
    6.8128   50.2934  129.2231 C   0  0  0  0  0  0  0  0  0  0  0  0
    6.5409   51.3826  130.0189 C   0  0  0  0  0  0  0  0  0  0  0  0
    6.6504   52.6905  129.5645 C   0  0  0  0  0  0  0  0  0  0  0  0
    6.7092   48.9472  129.5597 N   0  0  0  0  0  0  0  0  0  0  0  0
    7.7994   48.1245  130.0400 C   0  0  0  0  0  0  0  0  0  0  0  0
    8.8675   48.6685  130.1479 O   0  0  0  0  0  0  0  0  0  0  0  0
    7.4546   46.7794  130.3233 N   0  0  0  0  0  0  0  0  0  0  0  0
    5.7542   48.5138  129.4792 H   0  0  0  0  0  0  0  0  0  0  0  0
    6.4519   46.4483  130.1491 H   0  0  0  0  0  0  0  0  0  0  0  0
    8.3787   45.8395  130.8308 C   0  0  0  0  0  0  0  0  0  0  0  0
    8.3563   44.5466  130.3024 C   0  0  0  0  0  0  0  0  0  0  0  0
    9.1719   43.5723  130.8585 C   0  0  0  0  0  0  0  0  0  0  0  0
   10.0160   43.8133  131.9177 C   0  0  0  0  0  0  0  0  0  0  0  0
   10.0527   45.0905  132.4441 C   0  0  0  0  0  0  0  0  0  0  0  0
    9.2409   46.0686  131.8955 C   0  0  0  0  0  0  0  0  0  0  0  0
   10.7339   42.6629  132.5421 C   0  0  0  0  0  0  0  0  0  0  0  0
    9.8273   42.0872  133.4546 F   0  0  0  0  0  0  0  0  0  0  0  0
   11.8675   43.0650  133.1909 F   0  0  0  0  0  0  0  0  0  0  0  0
   11.0283   41.7298  131.6090 F   0  0  0  0  0  0  0  0  0  0  0  0
    7.1692   54.2193  127.7719 O   0  0  0  0  0  0  0  0  0  0  0  0
    8.0365   55.9197  123.2231 C   0  0  0  0  0  0  0  0  0  0  0  0
    6.8163   56.4195  123.5795 C   0  0  0  0  0  0  0  0  0  0  0  0
    6.2718   56.1214  124.8286 C   0  0  0  0  0  0  0  0  0  0  0  0
    5.0807   56.5926  125.2005 N   0  0  0  0  0  0  0  0  0  0  0  0
    4.5242   56.3239  126.3981 C   0  0  0  0  0  0  0  0  0  0  0  0
    5.1870   55.5252  127.3105 C   0  0  0  0  0  0  0  0  0  0  0  0
    6.4117   55.0109  126.9853 C   0  0  0  0  0  0  0  0  0  0  0  0
    6.9459   55.3247  125.7225 C   0  0  0  0  0  0  0  0  0  0  0  0
    8.1786   54.8361  125.3265 C   0  0  0  0  0  0  0  0  0  0  0  0
    8.7486   55.1030  124.1128 C   0  0  0  0  0  0  0  0  0  0  0  0
    8.2017   55.9939  120.7313 C   0  0  0  0  0  0  0  0  0  0  0  0
    8.6146   56.1746  122.0338 O   0  0  0  0  0  0  0  0  0  0  0  0
    9.9909   54.6010  123.7390 O   0  0  0  0  0  0  0  0  0  0  0  0
   10.3893   53.2862  124.0441 C   0  0  0  0  0  0  0  0  0  0  0  0
 34 35  1  0  0  0
 35 24  1  0  0  0
 24 25  2  0  0  0
 25 26  1  0  0  0
 26 27  2  0  0  0
 27 28  1  0  0  0
 28 29  2  0  0  0
 29 30  1  0  0  0
 30 23  1  0  0  0
 23  1  1  0  0  0
  1  2  2  0  0  0
  2  3  1  0  0  0
  3  4  2  0  0  0
  4  7  1  0  0  0
  7  8  1  0  0  0
  8  9  2  0  0  0
  8 10  1  0  0  0
 10 13  1  0  0  0
 13 14  2  0  0  0
 14 15  1  0  0  0
 15 16  2  0  0  0
 16 17  1  0  0  0
 17 18  2  0  0  0
 16 19  1  0  0  0
 19 20  1  0  0  0
 19 21  1  0  0  0
 19 22  1  0  0  0
  4  5  1  0  0  0
  5  6  2  0  0  0
 30 31  2  0  0  0
 31 32  1  0  0  0
 32 33  2  0  0  0
 33 36  1  0  0  0
 36 37  1  0  0  0
 33 24  1  0  0  0
 31 26  1  0  0  0
  6  1  1  0  0  0
 18 13  1  0  0  0
  7 11  1  0  0  0
 10 12  1  0  0  0
M  END
> <minimizedAffinity>
8.04915

> <CNNscore>
0.4551525414

> <CNNaffinity>
6.6736006737

> <CNN_VS>
3.0375063419

> <CNNaffinity_variance>
1.0541571379

$$$$
[H]c1nc2c([H])c(OC([H])([H])[H])c(OC([H])([H])[H])c([H])c2c(Oc2c([H])c([H])c(N([H])C(=O)N([H])c3c([H])c([H])c(C(F)(F)F)c([H])c3[H])c([H])c2[H])c1[H]


 37 40  0  0  0  0  0  0  0  0999 V2000
    7.4907   46.8655  130.3623 C   0  0  0  0  0  0  0  0  0  0  0  0
    7.4924   47.8264  131.3368 C   0  0  0  0  0  0  0  0  0  0  0  0
    7.4261   49.1573  131.0807 C   0  0  0  0  0  0  0  0  0  0  0  0
    7.3488   49.6591  129.7514 C   0  0  0  0  0  0  0  0  0  0  0  0
    7.3468   48.6909  128.7734 C   0  0  0  0  0  0  0  0  0  0  0  0
    7.4164   47.3338  129.0603 C   0  0  0  0  0  0  0  0  0  0  0  0
    7.2534   51.0372  129.5839 N   0  0  0  0  0  0  0  0  0  0  0  0
    7.3339   51.7275  128.3139 C   0  0  0  0  0  0  0  0  0  0  0  0
    7.4962   51.0354  127.3428 O   0  0  0  0  0  0  0  0  0  0  0  0
    7.2056   53.1368  128.3893 N   0  0  0  0  0  0  0  0  0  0  0  0
    7.0837   51.6064  130.4520 H   0  0  0  0  0  0  0  0  0  0  0  0
    7.0871   53.6012  129.3462 H   0  0  0  0  0  0  0  0  0  0  0  0
    7.2264   53.9726  127.2509 C   0  0  0  0  0  0  0  0  0  0  0  0
    6.0059   54.3024  126.6570 C   0  0  0  0  0  0  0  0  0  0  0  0
    6.0007   55.0258  125.4736 C   0  0  0  0  0  0  0  0  0  0  0  0
    7.1497   55.4441  124.8433 C   0  0  0  0  0  0  0  0  0  0  0  0
    8.3633   55.1307  125.4254 C   0  0  0  0  0  0  0  0  0  0  0  0
    8.3771   54.4078  126.6061 C   0  0  0  0  0  0  0  0  0  0  0  0
    7.0415   56.0790  123.4965 C   0  0  0  0  0  0  0  0  0  0  0  0
    8.1711   56.9114  123.3666 F   0  0  0  0  0  0  0  0  0  0  0  0
    5.8955   56.8133  123.3731 F   0  0  0  0  0  0  0  0  0  0  0  0
    7.1082   55.1391  122.5268 F   0  0  0  0  0  0  0  0  0  0  0  0
    7.5628   45.5733  130.7032 O   0  0  0  0  0  0  0  0  0  0  0  0
   11.4519   43.9684  133.2790 C   0  0  0  0  0  0  0  0  0  0  0  0
   11.3828   43.1680  132.1743 C   0  0  0  0  0  0  0  0  0  0  0  0
   10.3780   43.3625  131.2267 C   0  0  0  0  0  0  0  0  0  0  0  0
   10.2847   42.5930  130.1412 N   0  0  0  0  0  0  0  0  0  0  0  0
    9.3268   42.7517  129.2066 C   0  0  0  0  0  0  0  0  0  0  0  0
    8.3774   43.7463  129.3445 C   0  0  0  0  0  0  0  0  0  0  0  0
    8.4201   44.5663  130.4380 C   0  0  0  0  0  0  0  0  0  0  0  0
    9.4422   44.3568  131.3814 C   0  0  0  0  0  0  0  0  0  0  0  0
    9.5434   45.1472  132.5128 C   0  0  0  0  0  0  0  0  0  0  0  0
   10.5112   44.9911  133.4659 C   0  0  0  0  0  0  0  0  0  0  0  0
   13.4619   44.6204  134.6120 C   0  0  0  0  0  0  0  0  0  0  0  0
   12.3997   43.8315  134.2258 O   0  0  0  0  0  0  0  0  0  0  0  0
   10.5927   45.8006  134.5942 O   0  0  0  0  0  0  0  0  0  0  0  0
    9.5577   45.8647  135.5455 C   0  0  0  0  0  0  0  0  0  0  0  0
 34 35  1  0  0  0
 35 24  1  0  0  0
 24 25  2  0  0  0
 25 26  1  0  0  0
 26 27  2  0  0  0
 27 28  1  0  0  0
 28 29  2  0  0  0
 29 30  1  0  0  0
 30 23  1  0  0  0
 23  1  1  0  0  0
  1  2  2  0  0  0
  2  3  1  0  0  0
  3  4  2  0  0  0
  4  7  1  0  0  0
  7  8  1  0  0  0
  8  9  2  0  0  0
  8 10  1  0  0  0
 10 13  1  0  0  0
 13 14  2  0  0  0
 14 15  1  0  0  0
 15 16  2  0  0  0
 16 17  1  0  0  0
 17 18  2  0  0  0
 16 19  1  0  0  0
 19 20  1  0  0  0
 19 21  1  0  0  0
 19 22  1  0  0  0
  4  5  1  0  0  0
  5  6  2  0  0  0
 30 31  2  0  0  0
 31 32  1  0  0  0
 32 33  2  0  0  0
 33 36  1  0  0  0
 36 37  1  0  0  0
 33 24  1  0  0  0
 31 26  1  0  0  0
  6  1  1  0  0  0
 18 13  1  0  0  0
  7 11  1  0  0  0
 10 12  1  0  0  0
M  END
> <minimizedAffinity>
1.05621

> <CNNscore>
0.4071505666

> <CNNaffinity>
7.0183472633

> <CNN_VS>
2.8575241566

> <CNNaffinity_variance>
0.4430909157

$$$$
[H]OC(=O)C([H])([H])[C@@]([H])(C([H])=O)N([H])C(=O)[C@@]1([H])N2C(=O)[C@@]([H])(N([H])C(=O)c3c([H])c([H])c([H])c([H])c3[H])C([H])([H])C([H])([H])C(=O)N2C([H])([H])C([H])([H])C1([H])[H]


 35 37  0  0  0  0  0  0  0  0999 V2000
   10.1864   46.1095  129.8105 C   0  0  0  0  0  0  0  0  0  0  0  0
   10.1215   45.6053  128.3855 C   0  0  0  0  0  0  0  0  0  0  0  0
   10.8935   44.3157  128.1914 C   0  0  0  0  0  0  0  0  0  0  0  0
   10.1151   43.2714  129.0120 C   0  0  0  0  0  0  0  0  0  0  0  0
   10.3414   43.6793  130.3802 N   0  0  0  0  0  0  0  0  0  0  0  0
   10.5603   45.0266  130.6782 N   0  0  0  0  0  0  0  0  0  0  0  0
   11.1912   45.4388  131.9077 C   0  0  0  0  0  0  0  0  0  0  0  0
   11.1131   46.6687  132.1027 O   0  0  0  0  0  0  0  0  0  0  0  0
   11.8871   44.6733  132.9331 C   0  0  0  0  0  0  0  0  0  0  0  0
   11.3544   43.3995  133.4036 C   0  0  0  0  0  0  0  0  0  0  0  0
   10.2338   42.7098  132.7573 C   0  0  0  0  0  0  0  0  0  0  0  0
   10.3064   42.5521  131.2819 C   0  0  0  0  0  0  0  0  0  0  0  0
   10.3396   41.4018  130.7745 O   0  0  0  0  0  0  0  0  0  0  0  0
    8.3019   47.8114  129.6338 N   0  0  0  0  0  0  0  0  0  0  0  0
    8.7998   46.5970  130.1420 C   0  0  0  0  0  0  0  0  0  0  0  0
    8.0708   45.9050  130.8889 O   0  0  0  0  0  0  0  0  0  0  0  0
    8.9398   48.3831  129.0047 H   0  0  0  0  0  0  0  0  0  0  0  0
    7.0065   48.3635  129.8808 C   0  0  0  0  0  0  0  0  0  0  0  0
    5.9513   47.5460  129.2626 C   0  0  0  0  0  0  0  0  0  0  0  0
    5.8387   47.5099  128.0402 O   0  0  0  0  0  0  0  0  0  0  0  0
    6.9118   49.8241  129.4867 C   0  0  0  0  0  0  0  0  0  0  0  0
    4.4376   50.0406  129.1902 O   0  0  0  0  0  0  0  0  0  0  0  0
    5.5744   50.3146  129.9097 C   0  0  0  0  0  0  0  0  0  0  0  0
    5.4333   51.0110  130.9601 O   0  0  0  0  0  0  0  0  0  0  0  0
    4.0143   49.1369  129.0670 H   0  0  0  0  0  0  0  0  0  0  0  0
   12.2233   45.5647  134.0499 N   0  0  0  0  0  0  0  0  0  0  0  0
   13.3631   46.3857  134.0787 C   0  0  0  0  0  0  0  0  0  0  0  0
   14.1273   46.3405  133.0833 O   0  0  0  0  0  0  0  0  0  0  0  0
   11.5753   45.5830  134.8601 H   0  0  0  0  0  0  0  0  0  0  0  0
   13.7050   47.2726  135.1821 C   0  0  0  0  0  0  0  0  0  0  0  0
   12.8500   48.2968  135.5260 C   0  0  0  0  0  0  0  0  0  0  0  0
   13.1060   49.1695  136.5544 C   0  0  0  0  0  0  0  0  0  0  0  0
   14.2647   49.0287  137.2844 C   0  0  0  0  0  0  0  0  0  0  0  0
   15.1175   48.0101  136.9442 C   0  0  0  0  0  0  0  0  0  0  0  0
   14.8606   47.1356  135.9133 C   0  0  0  0  0  0  0  0  0  0  0  0
 22 23  1  0  0  0
 23 24  2  0  0  0
 23 21  1  0  0  0
 21 18  1  0  0  0
 18 14  1  0  0  0
 14 15  1  0  0  0
 15 16  2  0  0  0
 15  1  1  0  0  0
  1  2  1  0  0  0
  2  3  1  0  0  0
  3  4  1  0  0  0
  4  5  1  0  0  0
  5  6  1  0  0  0
  6  7  1  0  0  0
  7  8  2  0  0  0
  7  9  1  0  0  0
  9 10  1  0  0  0
 10 11  1  0  0  0
 11 12  1  0  0  0
 12 13  2  0  0  0
  9 26  1  0  0  0
 26 27  1  0  0  0
 27 28  2  0  0  0
 27 30  1  0  0  0
 30 31  2  0  0  0
 31 32  1  0  0  0
 32 33  2  0  0  0
 33 34  1  0  0  0
 34 35  2  0  0  0
 18 19  1  0  0  0
 19 20  2  0  0  0
  6  1  1  0  0  0
 35 30  1  0  0  0
 12  5  1  0  0  0
 22 25  1  0  0  0
 14 17  1  0  0  0
 26 29  1  0  0  0
M  END
> <minimizedAffinity>
7.54441

> <CNNscore>
0.5470741391

> <CNNaffinity>
7.4769411087

> <CNN_VS>
4.0904412270

> <CNNaffinity_variance>
0.8500325084

$$$$
[H]OC(=O)C([H])([H])[C@@]([H])(C([H])=O)N([H])C(=O)[C@@]1([H])N2C(=O)[C@@]([H])(N([H])C(=O)c3c([H])c([H])c([H])c([H])c3[H])C([H])([H])C([H])([H])C(=O)N2C([H])([H])C([H])([H])C1([H])[H]


 35 37  0  0  0  0  0  0  0  0999 V2000
   10.2610   46.6431  128.8291 C   0  0  0  0  0  0  0  0  0  0  0  0
   10.5786   46.6961  127.3508 C   0  0  0  0  0  0  0  0  0  0  0  0
   11.2574   45.4338  126.8582 C   0  0  0  0  0  0  0  0  0  0  0  0
   10.1820   44.3401  126.9885 C   0  0  0  0  0  0  0  0  0  0  0  0
   10.0262   44.1874  128.4175 N   0  0  0  0  0  0  0  0  0  0  0  0
   10.2638   45.2732  129.2640 N   0  0  0  0  0  0  0  0  0  0  0  0
   10.5343   45.0947  130.6691 C   0  0  0  0  0  0  0  0  0  0  0  0
   10.5098   46.1672  131.3064 O   0  0  0  0  0  0  0  0  0  0  0  0
   10.8241   43.8973  131.4462 C   0  0  0  0  0  0  0  0  0  0  0  0
   10.0663   42.6690  131.2350 C   0  0  0  0  0  0  0  0  0  0  0  0
    9.1325   42.4833  130.1202 C   0  0  0  0  0  0  0  0  0  0  0  0
    9.6263   42.8447  128.7665 C   0  0  0  0  0  0  0  0  0  0  0  0
    9.7079   41.9639  127.8724 O   0  0  0  0  0  0  0  0  0  0  0  0
    8.7032   48.5814  129.3722 N   0  0  0  0  0  0  0  0  0  0  0  0
    8.8867   47.2422  128.9803 C   0  0  0  0  0  0  0  0  0  0  0  0
    7.8814   46.5313  128.7518 O   0  0  0  0  0  0  0  0  0  0  0  0
    9.5710   49.1643  129.5637 H   0  0  0  0  0  0  0  0  0  0  0  0
    7.4501   49.2484  129.5421 C   0  0  0  0  0  0  0  0  0  0  0  0
    7.2721   50.3123  128.5420 C   0  0  0  0  0  0  0  0  0  0  0  0
    6.8665   51.4188  128.8873 O   0  0  0  0  0  0  0  0  0  0  0  0
    7.2434   49.7463  130.9588 C   0  0  0  0  0  0  0  0  0  0  0  0
    8.6778   48.2851  132.3955 O   0  0  0  0  0  0  0  0  0  0  0  0
    8.4897   49.4640  131.7173 C   0  0  0  0  0  0  0  0  0  0  0  0
    9.4332   50.3098  131.7667 O   0  0  0  0  0  0  0  0  0  0  0  0
    8.7768   47.3720  131.9863 H   0  0  0  0  0  0  0  0  0  0  0  0
   10.8900   44.2545  132.8686 N   0  0  0  0  0  0  0  0  0  0  0  0
    9.8378   44.8664  133.5703 C   0  0  0  0  0  0  0  0  0  0  0  0
    8.7884   45.1154  132.9271 O   0  0  0  0  0  0  0  0  0  0  0  0
   11.7684   44.0380  133.3767 H   0  0  0  0  0  0  0  0  0  0  0  0
    9.8941   45.2247  134.9808 C   0  0  0  0  0  0  0  0  0  0  0  0
   10.4468   44.3468  135.8875 C   0  0  0  0  0  0  0  0  0  0  0  0
   10.5351   44.6177  137.2304 C   0  0  0  0  0  0  0  0  0  0  0  0
   10.0542   45.8158  137.7087 C   0  0  0  0  0  0  0  0  0  0  0  0
    9.5035   46.6915  136.8084 C   0  0  0  0  0  0  0  0  0  0  0  0
    9.4152   46.4194  135.4624 C   0  0  0  0  0  0  0  0  0  0  0  0
 22 23  1  0  0  0
 23 24  2  0  0  0
 23 21  1  0  0  0
 21 18  1  0  0  0
 18 14  1  0  0  0
 14 15  1  0  0  0
 15 16  2  0  0  0
 15  1  1  0  0  0
  1  2  1  0  0  0
  2  3  1  0  0  0
  3  4  1  0  0  0
  4  5  1  0  0  0
  5  6  1  0  0  0
  6  7  1  0  0  0
  7  8  2  0  0  0
  7  9  1  0  0  0
  9 10  1  0  0  0
 10 11  1  0  0  0
 11 12  1  0  0  0
 12 13  2  0  0  0
  9 26  1  0  0  0
 26 27  1  0  0  0
 27 28  2  0  0  0
 27 30  1  0  0  0
 30 31  2  0  0  0
 31 32  1  0  0  0
 32 33  2  0  0  0
 33 34  1  0  0  0
 34 35  2  0  0  0
 18 19  1  0  0  0
 19 20  2  0  0  0
  6  1  1  0  0  0
 35 30  1  0  0  0
 12  5  1  0  0  0
 22 25  1  0  0  0
 14 17  1  0  0  0
 26 29  1  0  0  0
M  END
> <minimizedAffinity>
8.04413

> <CNNscore>
0.4080721140

> <CNNaffinity>
7.0064668655

> <CNN_VS>
2.8591437340

> <CNNaffinity_variance>
0.6694521904

$$$$
[H]OC(=O)C([H])([H])[C@@]([H])(C([H])=O)N([H])C(=O)[C@@]1([H])N2C(=O)[C@@]([H])(N([H])C(=O)c3c([H])c([H])c([H])c([H])c3[H])C([H])([H])C([H])([H])C(=O)N2C([H])([H])C([H])([H])C1([H])[H]


 35 37  0  0  0  0  0  0  0  0999 V2000
   10.0886   48.6095  130.8604 C   0  0  0  0  0  0  0  0  0  0  0  0
    9.8996   50.0750  130.5358 C   0  0  0  0  0  0  0  0  0  0  0  0
    8.8707   50.2992  129.4458 C   0  0  0  0  0  0  0  0  0  0  0  0
    7.5364   49.8629  130.0776 C   0  0  0  0  0  0  0  0  0  0  0  0
    7.6791   48.4310  130.2143 N   0  0  0  0  0  0  0  0  0  0  0  0
    8.9465   47.8714  130.3951 N   0  0  0  0  0  0  0  0  0  0  0  0
    9.2071   46.4795  130.1227 C   0  0  0  0  0  0  0  0  0  0  0  0
   10.3229   46.1061  130.5379 O   0  0  0  0  0  0  0  0  0  0  0  0
    8.4010   45.4641  129.4588 C   0  0  0  0  0  0  0  0  0  0  0  0
    6.9737   45.3458  129.7356 C   0  0  0  0  0  0  0  0  0  0  0  0
    6.2215   46.3361  130.5120 C   0  0  0  0  0  0  0  0  0  0  0  0
    6.4027   47.7611  130.1333 C   0  0  0  0  0  0  0  0  0  0  0  0
    5.4205   48.4312  129.7232 O   0  0  0  0  0  0  0  0  0  0  0  0
   10.6261   47.3539  133.0083 N   0  0  0  0  0  0  0  0  0  0  0  0
   10.1948   48.5269  132.3611 C   0  0  0  0  0  0  0  0  0  0  0  0
    9.8918   49.5269  133.0514 O   0  0  0  0  0  0  0  0  0  0  0  0
   10.8747   46.5172  132.4020 H   0  0  0  0  0  0  0  0  0  0  0  0
   10.7658   47.1692  134.4191 C   0  0  0  0  0  0  0  0  0  0  0  0
   12.1324   46.7528  134.7698 C   0  0  0  0  0  0  0  0  0  0  0  0
   12.5782   45.6892  134.3478 O   0  0  0  0  0  0  0  0  0  0  0  0
    9.7136   46.2403  134.9913 C   0  0  0  0  0  0  0  0  0  0  0  0
    7.8384   47.8696  134.6992 O   0  0  0  0  0  0  0  0  0  0  0  0
    8.4021   46.6483  134.4241 C   0  0  0  0  0  0  0  0  0  0  0  0
    7.7497   45.8758  133.6589 O   0  0  0  0  0  0  0  0  0  0  0  0
    8.1890   48.7661  134.4088 H   0  0  0  0  0  0  0  0  0  0  0  0
    9.0819   44.1680  129.5649 N   0  0  0  0  0  0  0  0  0  0  0  0
    9.1882   43.4364  130.7597 C   0  0  0  0  0  0  0  0  0  0  0  0
    8.6651   43.9361  131.7861 O   0  0  0  0  0  0  0  0  0  0  0  0
    9.5057   43.7774  128.7020 H   0  0  0  0  0  0  0  0  0  0  0  0
    9.8620   42.1504  130.8746 C   0  0  0  0  0  0  0  0  0  0  0  0
    9.5511   41.1350  129.9968 C   0  0  0  0  0  0  0  0  0  0  0  0
   10.1462   39.8988  130.0443 C   0  0  0  0  0  0  0  0  0  0  0  0
   11.0983   39.6463  131.0061 C   0  0  0  0  0  0  0  0  0  0  0  0
   11.4097   40.6552  131.8812 C   0  0  0  0  0  0  0  0  0  0  0  0
   10.8127   41.8942  131.8333 C   0  0  0  0  0  0  0  0  0  0  0  0
 22 23  1  0  0  0
 23 24  2  0  0  0
 23 21  1  0  0  0
 21 18  1  0  0  0
 18 14  1  0  0  0
 14 15  1  0  0  0
 15 16  2  0  0  0
 15  1  1  0  0  0
  1  2  1  0  0  0
  2  3  1  0  0  0
  3  4  1  0  0  0
  4  5  1  0  0  0
  5  6  1  0  0  0
  6  7  1  0  0  0
  7  8  2  0  0  0
  7  9  1  0  0  0
  9 10  1  0  0  0
 10 11  1  0  0  0
 11 12  1  0  0  0
 12 13  2  0  0  0
  9 26  1  0  0  0
 26 27  1  0  0  0
 27 28  2  0  0  0
 27 30  1  0  0  0
 30 31  2  0  0  0
 31 32  1  0  0  0
 32 33  2  0  0  0
 33 34  1  0  0  0
 34 35  2  0  0  0
 18 19  1  0  0  0
 19 20  2  0  0  0
  6  1  1  0  0  0
 35 30  1  0  0  0
 12  5  1  0  0  0
 22 25  1  0  0  0
 14 17  1  0  0  0
 26 29  1  0  0  0
M  END
> <minimizedAffinity>
10.20152

> <CNNscore>
0.4065493941

> <CNNaffinity>
7.0073747635

> <CNN_VS>
2.8488440514

> <CNNaffinity_variance>
1.8161714077

$$$$
[H]OC(=O)C([H])([H])[C@@]([H])(C([H])=O)N([H])C(=O)[C@@]1([H])N2C(=O)[C@@]([H])(N([H])C(=O)c3c([H])c([H])c([H])c([H])c3[H])C([H])([H])C([H])([H])C(=O)N2C([H])([H])C([H])([H])C1([H])[H]


 35 37  0  0  0  0  0  0  0  0999 V2000
    9.5362   48.9815  131.4685 C   0  0  0  0  0  0  0  0  0  0  0  0
    9.3227   50.4585  131.2203 C   0  0  0  0  0  0  0  0  0  0  0  0
    8.5998   50.7286  129.9160 C   0  0  0  0  0  0  0  0  0  0  0  0
    7.1859   50.1595  130.1323 C   0  0  0  0  0  0  0  0  0  0  0  0
    7.4012   48.7313  130.1902 N   0  0  0  0  0  0  0  0  0  0  0  0
    8.6177   48.2288  130.6589 N   0  0  0  0  0  0  0  0  0  0  0  0
    9.0501   46.8863  130.3586 C   0  0  0  0  0  0  0  0  0  0  0  0
   10.0448   46.5378  131.0264 O   0  0  0  0  0  0  0  0  0  0  0  0
    8.5287   45.8959  129.4264 C   0  0  0  0  0  0  0  0  0  0  0  0
    7.0928   45.6718  129.3017 C   0  0  0  0  0  0  0  0  0  0  0  0
    6.0876   46.5392  129.9235 C   0  0  0  0  0  0  0  0  0  0  0  0
    6.2476   48.0019  129.7191 C   0  0  0  0  0  0  0  0  0  0  0  0
    5.3567   48.6524  129.1150 O   0  0  0  0  0  0  0  0  0  0  0  0
    8.8658   47.5024  133.4286 N   0  0  0  0  0  0  0  0  0  0  0  0
    9.2530   48.7611  132.9319 C   0  0  0  0  0  0  0  0  0  0  0  0
    9.3646   49.7216  133.7276 O   0  0  0  0  0  0  0  0  0  0  0  0
    8.7747   46.7031  132.7340 H   0  0  0  0  0  0  0  0  0  0  0  0
    8.5776   47.1838  134.7921 C   0  0  0  0  0  0  0  0  0  0  0  0
    8.2926   48.3964  135.5746 C   0  0  0  0  0  0  0  0  0  0  0  0
    7.2131   48.5187  136.1473 O   0  0  0  0  0  0  0  0  0  0  0  0
    9.6519   46.3244  135.4284 C   0  0  0  0  0  0  0  0  0  0  0  0
   10.0437   44.5338  133.7265 O   0  0  0  0  0  0  0  0  0  0  0  0
   10.4357   45.7034  134.3293 C   0  0  0  0  0  0  0  0  0  0  0  0
   11.5054   46.2358  133.9046 O   0  0  0  0  0  0  0  0  0  0  0  0
    9.2276   44.4036  133.1537 H   0  0  0  0  0  0  0  0  0  0  0  0
    9.2591   44.6357  129.6093 N   0  0  0  0  0  0  0  0  0  0  0  0
    9.0938   43.7906  130.7195 C   0  0  0  0  0  0  0  0  0  0  0  0
    8.2700   44.1507  131.5962 O   0  0  0  0  0  0  0  0  0  0  0  0
    9.9339   44.3615  128.8703 H   0  0  0  0  0  0  0  0  0  0  0  0
    9.8140   42.5392  130.9097 C   0  0  0  0  0  0  0  0  0  0  0  0
   10.7328   42.4276  131.9303 C   0  0  0  0  0  0  0  0  0  0  0  0
   11.4466   41.2798  132.1700 C   0  0  0  0  0  0  0  0  0  0  0  0
   11.2474   40.1821  131.3634 C   0  0  0  0  0  0  0  0  0  0  0  0
   10.3336   40.2904  130.3467 C   0  0  0  0  0  0  0  0  0  0  0  0
    9.6183   41.4412  130.1067 C   0  0  0  0  0  0  0  0  0  0  0  0
 22 23  1  0  0  0
 23 24  2  0  0  0
 23 21  1  0  0  0
 21 18  1  0  0  0
 18 14  1  0  0  0
 14 15  1  0  0  0
 15 16  2  0  0  0
 15  1  1  0  0  0
  1  2  1  0  0  0
  2  3  1  0  0  0
  3  4  1  0  0  0
  4  5  1  0  0  0
  5  6  1  0  0  0
  6  7  1  0  0  0
  7  8  2  0  0  0
  7  9  1  0  0  0
  9 10  1  0  0  0
 10 11  1  0  0  0
 11 12  1  0  0  0
 12 13  2  0  0  0
  9 26  1  0  0  0
 26 27  1  0  0  0
 27 28  2  0  0  0
 27 30  1  0  0  0
 30 31  2  0  0  0
 31 32  1  0  0  0
 32 33  2  0  0  0
 33 34  1  0  0  0
 34 35  2  0  0  0
 18 19  1  0  0  0
 19 20  2  0  0  0
  6  1  1  0  0  0
 35 30  1  0  0  0
 12  5  1  0  0  0
 22 25  1  0  0  0
 14 17  1  0  0  0
 26 29  1  0  0  0
M  END
> <minimizedAffinity>
6.62086

> <CNNscore>
0.3930060267

> <CNNaffinity>
7.0200424194

> <CNN_VS>
2.7589190006

> <CNNaffinity_variance>
1.2568800449

$$$$
[H]OC(=O)C([H])([H])[C@@]([H])(C([H])=O)N([H])C(=O)[C@@]1([H])N2C(=O)[C@@]([H])(N([H])C(=O)c3c([H])c([H])c([H])c([H])c3[H])C([H])([H])C([H])([H])C(=O)N2C([H])([H])C([H])([H])C1([H])[H]


 35 37  0  0  0  0  0  0  0  0999 V2000
    7.9130   49.6391  129.2236 C   0  0  0  0  0  0  0  0  0  0  0  0
    6.6623   50.4340  128.9189 C   0  0  0  0  0  0  0  0  0  0  0  0
    5.5312   49.5627  128.4109 C   0  0  0  0  0  0  0  0  0  0  0  0
    5.1513   48.6811  129.6143 C   0  0  0  0  0  0  0  0  0  0  0  0
    6.2955   47.8120  129.7716 N   0  0  0  0  0  0  0  0  0  0  0  0
    7.5643   48.2547  129.3889 N   0  0  0  0  0  0  0  0  0  0  0  0
    8.6422   47.3332  129.1270 C   0  0  0  0  0  0  0  0  0  0  0  0
    9.7465   47.9018  129.0084 O   0  0  0  0  0  0  0  0  0  0  0  0
    8.6521   45.8839  128.9819 C   0  0  0  0  0  0  0  0  0  0  0  0
    7.8875   45.0377  129.8912 C   0  0  0  0  0  0  0  0  0  0  0  0
    6.9160   45.5656  130.8538 C   0  0  0  0  0  0  0  0  0  0  0  0
    5.9190   46.5366  130.3340 C   0  0  0  0  0  0  0  0  0  0  0  0
    4.6928   46.2595  130.3747 O   0  0  0  0  0  0  0  0  0  0  0  0
    9.3891   49.4917  131.2920 N   0  0  0  0  0  0  0  0  0  0  0  0
    8.4604   50.2028  130.5093 C   0  0  0  0  0  0  0  0  0  0  0  0
    8.0799   51.3327  130.8923 O   0  0  0  0  0  0  0  0  0  0  0  0
    9.6949   48.5336  130.9484 H   0  0  0  0  0  0  0  0  0  0  0  0
    9.9722   49.9324  132.5207 C   0  0  0  0  0  0  0  0  0  0  0  0
   10.3843   48.7929  133.3546 C   0  0  0  0  0  0  0  0  0  0  0  0
   10.4611   47.6691  132.8652 O   0  0  0  0  0  0  0  0  0  0  0  0
    9.0841   50.9059  133.2700 C   0  0  0  0  0  0  0  0  0  0  0  0
    9.5183   53.1013  134.3871 O   0  0  0  0  0  0  0  0  0  0  0  0
    9.9708   51.8764  133.9628 C   0  0  0  0  0  0  0  0  0  0  0  0
   11.1890   51.6063  134.1888 O   0  0  0  0  0  0  0  0  0  0  0  0
    8.8462   53.2678  135.1161 H   0  0  0  0  0  0  0  0  0  0  0  0
   10.0408   45.4254  128.8550 N   0  0  0  0  0  0  0  0  0  0  0  0
   10.8449   45.0565  129.9464 C   0  0  0  0  0  0  0  0  0  0  0  0
   10.3293   45.1304  131.0890 O   0  0  0  0  0  0  0  0  0  0  0  0
   10.4428   45.3735  127.8997 H   0  0  0  0  0  0  0  0  0  0  0  0
   12.2233   44.6009  129.8304 C   0  0  0  0  0  0  0  0  0  0  0  0
   12.9350   44.8623  128.6799 C   0  0  0  0  0  0  0  0  0  0  0  0
   14.2370   44.4655  128.5011 C   0  0  0  0  0  0  0  0  0  0  0  0
   14.8744   43.7743  129.5067 C   0  0  0  0  0  0  0  0  0  0  0  0
   14.1684   43.5127  130.6529 C   0  0  0  0  0  0  0  0  0  0  0  0
   12.8632   43.9106  130.8316 C   0  0  0  0  0  0  0  0  0  0  0  0
 22 23  1  0  0  0
 23 24  2  0  0  0
 23 21  1  0  0  0
 21 18  1  0  0  0
 18 14  1  0  0  0
 14 15  1  0  0  0
 15 16  2  0  0  0
 15  1  1  0  0  0
  1  2  1  0  0  0
  2  3  1  0  0  0
  3  4  1  0  0  0
  4  5  1  0  0  0
  5  6  1  0  0  0
  6  7  1  0  0  0
  7  8  2  0  0  0
  7  9  1  0  0  0
  9 10  1  0  0  0
 10 11  1  0  0  0
 11 12  1  0  0  0
 12 13  2  0  0  0
  9 26  1  0  0  0
 26 27  1  0  0  0
 27 28  2  0  0  0
 27 30  1  0  0  0
 30 31  2  0  0  0
 31 32  1  0  0  0
 32 33  2  0  0  0
 33 34  1  0  0  0
 34 35  2  0  0  0
 18 19  1  0  0  0
 19 20  2  0  0  0
  6  1  1  0  0  0
 35 30  1  0  0  0
 12  5  1  0  0  0
 22 25  1  0  0  0
 14 17  1  0  0  0
 26 29  1  0  0  0
M  END
> <minimizedAffinity>
13.40806

> <CNNscore>
0.3777943552

> <CNNaffinity>
6.5210332870

> <CNN_VS>
2.4636094570

> <CNNaffinity_variance>
0.6945959926

$$$$
[H]OC(=O)C([H])([H])[C@@]([H])(C([H])=O)N([H])C(=O)[C@@]1([H])N2C(=O)[C@@]([H])(N([H])C(=O)c3c([H])c([H])c([H])c([H])c3[H])C([H])([H])C([H])([H])C(=O)N2C([H])([H])C([H])([H])C1([H])[H]


 35 37  0  0  0  0  0  0  0  0999 V2000
   10.4736   46.5339  129.3450 C   0  0  0  0  0  0  0  0  0  0  0  0
   10.3640   45.8040  128.0243 C   0  0  0  0  0  0  0  0  0  0  0  0
   10.4460   44.2993  128.1851 C   0  0  0  0  0  0  0  0  0  0  0  0
    9.1639   43.9213  128.9488 C   0  0  0  0  0  0  0  0  0  0  0  0
    9.3752   44.4834  130.2637 N   0  0  0  0  0  0  0  0  0  0  0  0
   10.1685   45.6236  130.4145 N   0  0  0  0  0  0  0  0  0  0  0  0
   10.7518   45.9794  131.6844 C   0  0  0  0  0  0  0  0  0  0  0  0
   11.2444   47.1257  131.6862 O   0  0  0  0  0  0  0  0  0  0  0  0
   10.8571   45.2378  132.9337 C   0  0  0  0  0  0  0  0  0  0  0  0
    9.7252   44.4731  133.4453 C   0  0  0  0  0  0  0  0  0  0  0  0
    8.5073   44.2242  132.6682 C   0  0  0  0  0  0  0  0  0  0  0  0
    8.6892   43.7231  131.2815 C   0  0  0  0  0  0  0  0  0  0  0  0
    8.2365   42.5954  130.9573 O   0  0  0  0  0  0  0  0  0  0  0  0
    8.1821   47.4534  128.7263 N   0  0  0  0  0  0  0  0  0  0  0  0
    9.4570   47.6448  129.2911 C   0  0  0  0  0  0  0  0  0  0  0  0
    9.7528   48.7675  129.7604 O   0  0  0  0  0  0  0  0  0  0  0  0
    7.9549   46.4931  128.3316 H   0  0  0  0  0  0  0  0  0  0  0  0
    7.1457   48.4331  128.6272 C   0  0  0  0  0  0  0  0  0  0  0  0
    7.6339   49.7669  129.0098 C   0  0  0  0  0  0  0  0  0  0  0  0
    7.4051   50.7350  128.2897 O   0  0  0  0  0  0  0  0  0  0  0  0
    5.8949   48.0357  129.3858 C   0  0  0  0  0  0  0  0  0  0  0  0
    7.2040   47.0174  131.2581 O   0  0  0  0  0  0  0  0  0  0  0  0
    6.2538   46.8998  130.2740 C   0  0  0  0  0  0  0  0  0  0  0  0
    5.6906   45.7700  130.1540 O   0  0  0  0  0  0  0  0  0  0  0  0
    7.1358   47.5820  132.0873 H   0  0  0  0  0  0  0  0  0  0  0  0
   11.4275   46.1146  133.9637 N   0  0  0  0  0  0  0  0  0  0  0  0
   12.8066   46.3110  134.1467 C   0  0  0  0  0  0  0  0  0  0  0  0
   13.5809   45.6920  133.3758 O   0  0  0  0  0  0  0  0  0  0  0  0
   10.7658   46.6143  134.5875 H   0  0  0  0  0  0  0  0  0  0  0  0
   13.3816   47.1782  135.1657 C   0  0  0  0  0  0  0  0  0  0  0  0
   12.6945   48.2999  135.5757 C   0  0  0  0  0  0  0  0  0  0  0  0
   13.1736   49.1609  136.5316 C   0  0  0  0  0  0  0  0  0  0  0  0
   14.3937   48.9065  137.1164 C   0  0  0  0  0  0  0  0  0  0  0  0
   15.0797   47.7907  136.7101 C   0  0  0  0  0  0  0  0  0  0  0  0
   14.5991   46.9280  135.7518 C   0  0  0  0  0  0  0  0  0  0  0  0
 22 23  1  0  0  0
 23 24  2  0  0  0
 23 21  1  0  0  0
 21 18  1  0  0  0
 18 14  1  0  0  0
 14 15  1  0  0  0
 15 16  2  0  0  0
 15  1  1  0  0  0
  1  2  1  0  0  0
  2  3  1  0  0  0
  3  4  1  0  0  0
  4  5  1  0  0  0
  5  6  1  0  0  0
  6  7  1  0  0  0
  7  8  2  0  0  0
  7  9  1  0  0  0
  9 10  1  0  0  0
 10 11  1  0  0  0
 11 12  1  0  0  0
 12 13  2  0  0  0
  9 26  1  0  0  0
 26 27  1  0  0  0
 27 28  2  0  0  0
 27 30  1  0  0  0
 30 31  2  0  0  0
 31 32  1  0  0  0
 32 33  2  0  0  0
 33 34  1  0  0  0
 34 35  2  0  0  0
 18 19  1  0  0  0
 19 20  2  0  0  0
  6  1  1  0  0  0
 35 30  1  0  0  0
 12  5  1  0  0  0
 22 25  1  0  0  0
 14 17  1  0  0  0
 26 29  1  0  0  0
M  END
> <minimizedAffinity>
8.30155

> <CNNscore>
0.3249267638

> <CNNaffinity>
6.8385353088

> <CNN_VS>
2.2220232487

> <CNNaffinity_variance>
0.2864538133

$$$$
[H]OC(=O)C([H])([H])[C@@]([H])(C([H])=O)N([H])C(=O)[C@@]1([H])N2C(=O)[C@@]([H])(N([H])C(=O)c3c([H])c([H])c([H])c([H])c3[H])C([H])([H])C([H])([H])C(=O)N2C([H])([H])C([H])([H])C1([H])[H]


 35 37  0  0  0  0  0  0  0  0999 V2000
    8.2536   42.8365  132.3226 C   0  0  0  0  0  0  0  0  0  0  0  0
    7.8541   41.3893  132.1357 C   0  0  0  0  0  0  0  0  0  0  0  0
    7.5180   41.0622  130.6946 C   0  0  0  0  0  0  0  0  0  0  0  0
    8.8554   41.1991  129.9447 C   0  0  0  0  0  0  0  0  0  0  0  0
    9.1237   42.6189  129.9880 N   0  0  0  0  0  0  0  0  0  0  0  0
    8.6463   43.3858  131.0539 N   0  0  0  0  0  0  0  0  0  0  0  0
    8.5108   44.8181  130.9570 C   0  0  0  0  0  0  0  0  0  0  0  0
    8.2776   45.3574  132.0577 O   0  0  0  0  0  0  0  0  0  0  0  0
    8.5994   45.7154  129.8130 C   0  0  0  0  0  0  0  0  0  0  0  0
    9.6497   45.5500  128.8145 C   0  0  0  0  0  0  0  0  0  0  0  0
   10.5372   44.3841  128.7681 C   0  0  0  0  0  0  0  0  0  0  0  0
    9.8915   43.0483  128.8431 C   0  0  0  0  0  0  0  0  0  0  0  0
   10.0038   42.2422  127.8842 O   0  0  0  0  0  0  0  0  0  0  0  0
   10.2154   43.9676  133.4848 N   0  0  0  0  0  0  0  0  0  0  0  0
    9.4196   42.8255  133.2768 C   0  0  0  0  0  0  0  0  0  0  0  0
    9.6886   41.7739  133.9013 O   0  0  0  0  0  0  0  0  0  0  0  0
    9.9699   44.8473  132.9414 H   0  0  0  0  0  0  0  0  0  0  0  0
   11.3375   44.0673  134.3651 C   0  0  0  0  0  0  0  0  0  0  0  0
   10.9476   44.6375  135.6638 C   0  0  0  0  0  0  0  0  0  0  0  0
    9.8212   45.1019  135.8179 O   0  0  0  0  0  0  0  0  0  0  0  0
   12.5054   44.8024  133.7381 C   0  0  0  0  0  0  0  0  0  0  0  0
   11.3318   45.7231  131.7304 O   0  0  0  0  0  0  0  0  0  0  0  0
   12.2577   44.8677  132.2744 C   0  0  0  0  0  0  0  0  0  0  0  0
   12.8981   44.1285  131.4673 O   0  0  0  0  0  0  0  0  0  0  0  0
   11.3837   46.7272  131.7180 H   0  0  0  0  0  0  0  0  0  0  0  0
    8.5159   47.1028  130.2857 N   0  0  0  0  0  0  0  0  0  0  0  0
    8.2299   48.1967  129.4518 C   0  0  0  0  0  0  0  0  0  0  0  0
    8.0383   47.9548  128.2346 O   0  0  0  0  0  0  0  0  0  0  0  0
    8.6785   47.2752  131.2959 H   0  0  0  0  0  0  0  0  0  0  0  0
    8.1456   49.5760  129.9115 C   0  0  0  0  0  0  0  0  0  0  0  0
    9.0892   50.0628  130.7896 C   0  0  0  0  0  0  0  0  0  0  0  0
    9.0737   51.3512  131.2634 C   0  0  0  0  0  0  0  0  0  0  0  0
    8.0773   52.2078  130.8526 C   0  0  0  0  0  0  0  0  0  0  0  0
    7.1368   51.7259  129.9786 C   0  0  0  0  0  0  0  0  0  0  0  0
    7.1526   50.4343  129.5040 C   0  0  0  0  0  0  0  0  0  0  0  0
 22 23  1  0  0  0
 23 24  2  0  0  0
 23 21  1  0  0  0
 21 18  1  0  0  0
 18 14  1  0  0  0
 14 15  1  0  0  0
 15 16  2  0  0  0
 15  1  1  0  0  0
  1  2  1  0  0  0
  2  3  1  0  0  0
  3  4  1  0  0  0
  4  5  1  0  0  0
  5  6  1  0  0  0
  6  7  1  0  0  0
  7  8  2  0  0  0
  7  9  1  0  0  0
  9 10  1  0  0  0
 10 11  1  0  0  0
 11 12  1  0  0  0
 12 13  2  0  0  0
  9 26  1  0  0  0
 26 27  1  0  0  0
 27 28  2  0  0  0
 27 30  1  0  0  0
 30 31  2  0  0  0
 31 32  1  0  0  0
 32 33  2  0  0  0
 33 34  1  0  0  0
 34 35  2  0  0  0
 18 19  1  0  0  0
 19 20  2  0  0  0
  6  1  1  0  0  0
 35 30  1  0  0  0
 12  5  1  0  0  0
 22 25  1  0  0  0
 14 17  1  0  0  0
 26 29  1  0  0  0
M  END
> <minimizedAffinity>
8.02289

> <CNNscore>
0.3244706392

> <CNNaffinity>
7.0041260719

> <CNN_VS>
2.2726333141

> <CNNaffinity_variance>
0.8496463895

$$$$
[H]OC(=O)C([H])([H])[C@@]([H])(C([H])=O)N([H])C(=O)[C@@]1([H])N2C(=O)[C@@]([H])(N([H])C(=O)c3c([H])c([H])c([H])c([H])c3[H])C([H])([H])C([H])([H])C(=O)N2C([H])([H])C([H])([H])C1([H])[H]


 35 37  0  0  0  0  0  0  0  0999 V2000
    8.5539   49.6242  129.5740 C   0  0  0  0  0  0  0  0  0  0  0  0
    7.8189   50.7223  128.8373 C   0  0  0  0  0  0  0  0  0  0  0  0
    6.7441   50.1826  127.9151 C   0  0  0  0  0  0  0  0  0  0  0  0
    5.6928   49.5739  128.8606 C   0  0  0  0  0  0  0  0  0  0  0  0
    6.3659   48.4228  129.4187 N   0  0  0  0  0  0  0  0  0  0  0  0
    7.7560   48.4289  129.5587 N   0  0  0  0  0  0  0  0  0  0  0  0
    8.5093   47.2077  129.7026 C   0  0  0  0  0  0  0  0  0  0  0  0
    9.6973   47.4077  130.0274 O   0  0  0  0  0  0  0  0  0  0  0  0
    8.1197   45.8142  129.5349 C   0  0  0  0  0  0  0  0  0  0  0  0
    6.8511   45.3253  130.0632 C   0  0  0  0  0  0  0  0  0  0  0  0
    5.8099   46.2084  130.5974 C   0  0  0  0  0  0  0  0  0  0  0  0
    5.4312   47.3775  129.7628 C   0  0  0  0  0  0  0  0  0  0  0  0
    4.2561   47.4833  129.3271 O   0  0  0  0  0  0  0  0  0  0  0  0
    9.5264   49.4238  131.9177 N   0  0  0  0  0  0  0  0  0  0  0  0
    8.7349   50.1201  130.9853 C   0  0  0  0  0  0  0  0  0  0  0  0
    8.1669   51.1786  131.3388 O   0  0  0  0  0  0  0  0  0  0  0  0
    9.9960   48.5263  131.5957 H   0  0  0  0  0  0  0  0  0  0  0  0
    9.7672   49.8052  133.2743 C   0  0  0  0  0  0  0  0  0  0  0  0
   10.2768   51.1825  133.3588 C   0  0  0  0  0  0  0  0  0  0  0  0
    9.6619   52.0269  134.0047 O   0  0  0  0  0  0  0  0  0  0  0  0
   10.6500   48.8160  134.0090 C   0  0  0  0  0  0  0  0  0  0  0  0
    8.6710   47.3424  133.5983 O   0  0  0  0  0  0  0  0  0  0  0  0
    9.9989   47.4834  133.9177 C   0  0  0  0  0  0  0  0  0  0  0  0
   10.6520   46.4182  134.1341 O   0  0  0  0  0  0  0  0  0  0  0  0
    8.2454   47.5579  132.7132 H   0  0  0  0  0  0  0  0  0  0  0  0
    9.2397   44.9531  129.9337 N   0  0  0  0  0  0  0  0  0  0  0  0
    9.4678   44.5288  131.2535 C   0  0  0  0  0  0  0  0  0  0  0  0
    8.6571   44.9193  132.1293 O   0  0  0  0  0  0  0  0  0  0  0  0
    9.8950   44.6446  129.1907 H   0  0  0  0  0  0  0  0  0  0  0  0
   10.5761   43.6752  131.6586 C   0  0  0  0  0  0  0  0  0  0  0  0
   10.4175   42.3066  131.6660 C   0  0  0  0  0  0  0  0  0  0  0  0
   11.4176   41.4411  132.0340 C   0  0  0  0  0  0  0  0  0  0  0  0
   12.6396   41.9473  132.4155 C   0  0  0  0  0  0  0  0  0  0  0  0
   12.8003   43.3092  132.4092 C   0  0  0  0  0  0  0  0  0  0  0  0
   11.7974   44.1764  132.0403 C   0  0  0  0  0  0  0  0  0  0  0  0
 22 23  1  0  0  0
 23 24  2  0  0  0
 23 21  1  0  0  0
 21 18  1  0  0  0
 18 14  1  0  0  0
 14 15  1  0  0  0
 15 16  2  0  0  0
 15  1  1  0  0  0
  1  2  1  0  0  0
  2  3  1  0  0  0
  3  4  1  0  0  0
  4  5  1  0  0  0
  5  6  1  0  0  0
  6  7  1  0  0  0
  7  8  2  0  0  0
  7  9  1  0  0  0
  9 10  1  0  0  0
 10 11  1  0  0  0
 11 12  1  0  0  0
 12 13  2  0  0  0
  9 26  1  0  0  0
 26 27  1  0  0  0
 27 28  2  0  0  0
 27 30  1  0  0  0
 30 31  2  0  0  0
 31 32  1  0  0  0
 32 33  2  0  0  0
 33 34  1  0  0  0
 34 35  2  0  0  0
 18 19  1  0  0  0
 19 20  2  0  0  0
  6  1  1  0  0  0
 35 30  1  0  0  0
 12  5  1  0  0  0
 22 25  1  0  0  0
 14 17  1  0  0  0
 26 29  1  0  0  0
M  END
> <minimizedAffinity>
8.44026

> <CNNscore>
0.3070691824

> <CNNaffinity>
6.6214852333

> <CNN_VS>
2.0332541466

> <CNNaffinity_variance>
0.8150053024

$$$$
[H]OC(=O)C([H])([H])[C@@]([H])(C([H])=O)N([H])C(=O)[C@@]1([H])N2C(=O)[C@@]([H])(N([H])C(=O)c3c([H])c([H])c([H])c([H])c3[H])C([H])([H])C([H])([H])C(=O)N2C([H])([H])C([H])([H])C1([H])[H]


 35 37  0  0  0  0  0  0  0  0999 V2000
   10.3749   46.9368  129.4554 C   0  0  0  0  0  0  0  0  0  0  0  0
   10.5070   47.3280  128.0000 C   0  0  0  0  0  0  0  0  0  0  0  0
   11.0840   46.2136  127.1503 C   0  0  0  0  0  0  0  0  0  0  0  0
   10.0035   45.1172  127.1643 C   0  0  0  0  0  0  0  0  0  0  0  0
   10.0230   44.6406  128.5289 N   0  0  0  0  0  0  0  0  0  0  0  0
   10.3942   45.5037  129.5630 N   0  0  0  0  0  0  0  0  0  0  0  0
   10.8327   45.0081  130.8442 C   0  0  0  0  0  0  0  0  0  0  0  0
   10.9175   45.9057  131.7067 O   0  0  0  0  0  0  0  0  0  0  0  0
   11.1841   43.6649  131.2846 C   0  0  0  0  0  0  0  0  0  0  0  0
   10.3723   42.5165  130.8978 C   0  0  0  0  0  0  0  0  0  0  0  0
    9.3020   42.5897  129.8986 C   0  0  0  0  0  0  0  0  0  0  0  0
    9.6328   43.2529  128.6111 C   0  0  0  0  0  0  0  0  0  0  0  0
    9.5780   42.6008  127.5370 O   0  0  0  0  0  0  0  0  0  0  0  0
    7.9136   47.4653  129.0795 N   0  0  0  0  0  0  0  0  0  0  0  0
    9.0473   47.4828  129.9133 C   0  0  0  0  0  0  0  0  0  0  0  0
    8.9489   47.9647  131.0649 O   0  0  0  0  0  0  0  0  0  0  0  0
    8.0220   47.0542  128.1054 H   0  0  0  0  0  0  0  0  0  0  0  0
    6.6112   47.9515  129.4132 C   0  0  0  0  0  0  0  0  0  0  0  0
    5.5667   46.9946  129.0166 C   0  0  0  0  0  0  0  0  0  0  0  0
    4.5069   46.9501  129.6356 O   0  0  0  0  0  0  0  0  0  0  0  0
    6.3542   49.3444  128.8733 C   0  0  0  0  0  0  0  0  0  0  0  0
    8.0753   50.6440  130.1403 O   0  0  0  0  0  0  0  0  0  0  0  0
    6.7604   50.3125  129.9249 C   0  0  0  0  0  0  0  0  0  0  0  0
    5.8995   50.8725  130.6687 O   0  0  0  0  0  0  0  0  0  0  0  0
    8.6725   51.1510  129.5100 H   0  0  0  0  0  0  0  0  0  0  0  0
   11.4366   43.6864  132.7306 N   0  0  0  0  0  0  0  0  0  0  0  0
   10.4585   43.9964  133.6903 C   0  0  0  0  0  0  0  0  0  0  0  0
    9.3076   44.2691  133.2682 O   0  0  0  0  0  0  0  0  0  0  0  0
   12.3960   43.4574  133.0528 H   0  0  0  0  0  0  0  0  0  0  0  0
   10.6998   44.0207  135.1263 C   0  0  0  0  0  0  0  0  0  0  0  0
   10.0801   44.9715  135.9076 C   0  0  0  0  0  0  0  0  0  0  0  0
   10.2589   45.0535  137.2662 C   0  0  0  0  0  0  0  0  0  0  0  0
   11.0917   44.1529  137.8913 C   0  0  0  0  0  0  0  0  0  0  0  0
   11.7099   43.2056  137.1161 C   0  0  0  0  0  0  0  0  0  0  0  0
   11.5304   43.1238  135.7542 C   0  0  0  0  0  0  0  0  0  0  0  0
 22 23  1  0  0  0
 23 24  2  0  0  0
 23 21  1  0  0  0
 21 18  1  0  0  0
 18 14  1  0  0  0
 14 15  1  0  0  0
 15 16  2  0  0  0
 15  1  1  0  0  0
  1  2  1  0  0  0
  2  3  1  0  0  0
  3  4  1  0  0  0
  4  5  1  0  0  0
  5  6  1  0  0  0
  6  7  1  0  0  0
  7  8  2  0  0  0
  7  9  1  0  0  0
  9 10  1  0  0  0
 10 11  1  0  0  0
 11 12  1  0  0  0
 12 13  2  0  0  0
  9 26  1  0  0  0
 26 27  1  0  0  0
 27 28  2  0  0  0
 27 30  1  0  0  0
 30 31  2  0  0  0
 31 32  1  0  0  0
 32 33  2  0  0  0
 33 34  1  0  0  0
 34 35  2  0  0  0
 18 19  1  0  0  0
 19 20  2  0  0  0
  6  1  1  0  0  0
 35 30  1  0  0  0
 12  5  1  0  0  0
 22 25  1  0  0  0
 14 17  1  0  0  0
 26 29  1  0  0  0
M  END
> <minimizedAffinity>
8.21603

> <CNNscore>
0.3043527305

> <CNNaffinity>
7.0326766968

> <CNN_VS>
2.1404142380

> <CNNaffinity_variance>
0.7168755531

$$$$
[H]c1c([H])c([H])c(C([H])([H])[C@@]([H])(C(=O)N([H])[H])N([H])C(=O)[C@@]([H])(N([H])C(=O)[C@@]([H])(C(=O)N([H])[C@]([H])(C(=O)N([H])[C@]([H])(C(=O)N([H])[C@]([H])(C(=O)N([H])[H])C([H])([H])C([H])(C([H])([H])[H])C([H])([H])[H])C([H])([H])C([H])([H])C(=O)N([H])[H])C([H])([H])C([H])([H])C(=O)N([H])[H])N([H])C(=O)C([H])([H])[H])C([H])([H])C([H])([H])C([H])([H])N=C(N([H])[H])N([H])[H])c([H])c1[H]


 77 77  0  0  0  0  0  0  0  0999 V2000
   10.2384   48.2874  132.8895 C   0  0  0  0  0  0  0  0  0  0  0  0
    9.4348   48.5793  134.0381 N   0  0  0  0  0  0  0  0  0  0  0  0
    8.5626   47.6958  134.6497 C   0  0  0  0  0  0  0  0  0  0  0  0
    7.7516   48.0655  135.8626 C   0  0  0  0  0  0  0  0  0  0  0  0
    8.3464   46.4821  134.2678 O   0  0  0  0  0  0  0  0  0  0  0  0
    9.4911   49.5589  134.4822 H   0  0  0  0  0  0  0  0  0  0  0  0
   10.9039   46.9925  133.0673 C   0  0  0  0  0  0  0  0  0  0  0  0
   10.4237   46.2862  134.0344 O   0  0  0  0  0  0  0  0  0  0  0  0
   11.9640   46.4857  132.3019 N   0  0  0  0  0  0  0  0  0  0  0  0
   12.3358   47.0600  131.5125 H   0  0  0  0  0  0  0  0  0  0  0  0
   12.5980   45.2227  132.5128 C   0  0  0  0  0  0  0  0  0  0  0  0
   11.7927   44.0808  132.0925 C   0  0  0  0  0  0  0  0  0  0  0  0
   12.1822   43.5358  130.9758 O   0  0  0  0  0  0  0  0  0  0  0  0
   10.6885   43.4964  132.6852 N   0  0  0  0  0  0  0  0  0  0  0  0
   10.3201   43.8687  133.5891 H   0  0  0  0  0  0  0  0  0  0  0  0
   10.0430   42.3360  132.0293 C   0  0  0  0  0  0  0  0  0  0  0  0
   11.0584   41.2734  131.9928 C   0  0  0  0  0  0  0  0  0  0  0  0
   12.2357   41.3763  132.7606 N   0  0  0  0  0  0  0  0  0  0  0  0
   10.9050   40.2664  131.2810 O   0  0  0  0  0  0  0  0  0  0  0  0
   12.8197   40.5696  133.0367 H   0  0  0  0  0  0  0  0  0  0  0  0
   12.5603   42.3266  133.0758 H   0  0  0  0  0  0  0  0  0  0  0  0
    9.4390   42.7228  130.7346 C   0  0  0  0  0  0  0  0  0  0  0  0
    8.5466   43.8743  130.7223 C   0  0  0  0  0  0  0  0  0  0  0  0
    8.1207   44.5056  131.8873 C   0  0  0  0  0  0  0  0  0  0  0  0
    7.2968   45.5944  131.8890 C   0  0  0  0  0  0  0  0  0  0  0  0
    6.8565   46.1052  130.6736 C   0  0  0  0  0  0  0  0  0  0  0  0
    7.2562   45.5075  129.4982 C   0  0  0  0  0  0  0  0  0  0  0  0
    8.0843   44.4140  129.5216 C   0  0  0  0  0  0  0  0  0  0  0  0
   13.1602   45.0560  133.9229 C   0  0  0  0  0  0  0  0  0  0  0  0
   12.7286   46.0787  134.9057 C   0  0  0  0  0  0  0  0  0  0  0  0
   13.9113   47.0865  134.9689 C   0  0  0  0  0  0  0  0  0  0  0  0
   13.5771   48.1614  135.8422 N   0  0  0  0  0  0  0  0  0  0  0  0
   14.2925   48.4550  136.8608 C   0  0  0  0  0  0  0  0  0  0  0  0
   13.9212   49.5435  137.7200 N   0  0  0  0  0  0  0  0  0  0  0  0
   15.4823   47.7505  137.1931 N   0  0  0  0  0  0  0  0  0  0  0  0
   14.6340   49.9559  138.3293 H   0  0  0  0  0  0  0  0  0  0  0  0
   12.9489   49.8779  137.6933 H   0  0  0  0  0  0  0  0  0  0  0  0
   16.3921   48.1947  136.9756 H   0  0  0  0  0  0  0  0  0  0  0  0
   15.4576   46.8209  137.6400 H   0  0  0  0  0  0  0  0  0  0  0  0
   10.2035   48.6464  130.3891 N   0  0  0  0  0  0  0  0  0  0  0  0
    9.5522   48.4864  131.6095 C   0  0  0  0  0  0  0  0  0  0  0  0
    8.2742   48.5248  131.6332 O   0  0  0  0  0  0  0  0  0  0  0  0
   11.2790   48.5885  130.4435 H   0  0  0  0  0  0  0  0  0  0  0  0
    9.6191   48.8840  129.0742 C   0  0  0  0  0  0  0  0  0  0  0  0
    7.5383   50.2722  128.3360 N   0  0  0  0  0  0  0  0  0  0  0  0
    8.5303   49.8560  129.2174 C   0  0  0  0  0  0  0  0  0  0  0  0
    8.5114   50.4232  130.3865 O   0  0  0  0  0  0  0  0  0  0  0  0
    7.4596   49.8805  127.3919 H   0  0  0  0  0  0  0  0  0  0  0  0
    6.5687   51.3009  128.7270 C   0  0  0  0  0  0  0  0  0  0  0  0
    7.2836   53.0987  127.0905 N   0  0  0  0  0  0  0  0  0  0  0  0
    7.0817   52.6831  128.4126 C   0  0  0  0  0  0  0  0  0  0  0  0
    7.3311   53.4605  129.3616 O   0  0  0  0  0  0  0  0  0  0  0  0
    7.0596   52.3531  126.3487 H   0  0  0  0  0  0  0  0  0  0  0  0
    7.7372   54.3386  126.5641 C   0  0  0  0  0  0  0  0  0  0  0  0
    6.5852   55.2721  126.3047 C   0  0  0  0  0  0  0  0  0  0  0  0
    6.6781   56.6679  126.3050 N   0  0  0  0  0  0  0  0  0  0  0  0
    5.4433   54.7462  126.0667 O   0  0  0  0  0  0  0  0  0  0  0  0
    6.0986   57.2172  126.9905 H   0  0  0  0  0  0  0  0  0  0  0  0
    7.2810   57.2516  125.6840 H   0  0  0  0  0  0  0  0  0  0  0  0
    8.4906   54.2416  125.2924 C   0  0  0  0  0  0  0  0  0  0  0  0
    8.7189   55.8080  123.3576 C   0  0  0  0  0  0  0  0  0  0  0  0
    7.9102   54.7024  124.0330 C   0  0  0  0  0  0  0  0  0  0  0  0
    7.5586   53.6978  122.9854 C   0  0  0  0  0  0  0  0  0  0  0  0
    6.2482   51.2320  130.2098 C   0  0  0  0  0  0  0  0  0  0  0  0
    5.6648   49.8995  130.5417 C   0  0  0  0  0  0  0  0  0  0  0  0
    4.8815   49.2622  129.4649 C   0  0  0  0  0  0  0  0  0  0  0  0
    3.7585   49.9132  128.8683 N   0  0  0  0  0  0  0  0  0  0  0  0
    5.1884   48.1215  129.0429 O   0  0  0  0  0  0  0  0  0  0  0  0
    3.1410   49.3663  128.2450 H   0  0  0  0  0  0  0  0  0  0  0  0
    3.5360   50.9130  129.0390 H   0  0  0  0  0  0  0  0  0  0  0  0
    9.1044   47.6013  128.4120 C   0  0  0  0  0  0  0  0  0  0  0  0
   10.1835   46.8678  127.6670 C   0  0  0  0  0  0  0  0  0  0  0  0
   10.7113   45.7826  128.5460 C   0  0  0  0  0  0  0  0  0  0  0  0
   10.9105   44.5145  127.9510 N   0  0  0  0  0  0  0  0  0  0  0  0
   10.9492   46.0283  129.7369 O   0  0  0  0  0  0  0  0  0  0  0  0
   10.1954   44.0209  127.3481 H   0  0  0  0  0  0  0  0  0  0  0  0
   11.8165   44.0278  128.1161 H   0  0  0  0  0  0  0  0  0  0  0  0
 61 62  1  0  0  0
 62 63  1  0  0  0
 62 60  1  0  0  0
 60 54  1  0  0  0
 54 50  1  0  0  0
 50 51  1  0  0  0
 51 52  2  0  0  0
 51 49  1  0  0  0
 49 64  1  0  0  0
 64 65  1  0  0  0
 65 66  1  0  0  0
 66 67  1  0  0  0
 66 68  2  0  0  0
 49 45  1  0  0  0
 45 46  1  0  0  0
 46 47  2  0  0  0
 46 44  1  0  0  0
 44 71  1  0  0  0
 71 72  1  0  0  0
 72 73  1  0  0  0
 73 74  1  0  0  0
 73 75  2  0  0  0
 44 40  1  0  0  0
 40 41  1  0  0  0
 41 42  2  0  0  0
 41  1  1  0  0  0
  1  2  1  0  0  0
  2  3  1  0  0  0
  3  4  1  0  0  0
  3  5  2  0  0  0
  1  7  1  0  0  0
  7  8  2  0  0  0
  7  9  1  0  0  0
  9 11  1  0  0  0
 11 29  1  0  0  0
 29 30  1  0  0  0
 30 31  1  0  0  0
 31 32  1  0  0  0
 32 33  2  0  0  0
 33 34  1  0  0  0
 33 35  1  0  0  0
 11 12  1  0  0  0
 12 13  2  0  0  0
 12 14  1  0  0  0
 14 16  1  0  0  0
 16 22  1  0  0  0
 22 23  1  0  0  0
 23 24  2  0  0  0
 24 25  1  0  0  0
 25 26  2  0  0  0
 26 27  1  0  0  0
 27 28  2  0  0  0
 16 17  1  0  0  0
 17 18  1  0  0  0
 17 19  2  0  0  0
 54 55  1  0  0  0
 55 56  1  0  0  0
 55 57  2  0  0  0
 28 23  1  0  0  0
 50 53  1  0  0  0
 67 69  1  0  0  0
 67 70  1  0  0  0
 45 48  1  0  0  0
 74 76  1  0  0  0
 74 77  1  0  0  0
 40 43  1  0  0  0
  2  6  1  0  0  0
  9 10  1  0  0  0
 34 36  1  0  0  0
 34 37  1  0  0  0
 35 38  1  0  0  0
 35 39  1  0  0  0
 14 15  1  0  0  0
 18 20  1  0  0  0
 18 21  1  0  0  0
 56 58  1  0  0  0
 56 59  1  0  0  0
M  END
> <minimizedAffinity>
8.06658

> <CNNscore>
0.5380327702

> <CNNaffinity>
8.4185047150

> <CNN_VS>
4.5294313431

> <CNNaffinity_variance>
0.7106274962

$$$$
[H]c1c([H])c([H])c(C([H])([H])[C@@]([H])(C(=O)N([H])[H])N([H])C(=O)[C@@]([H])(N([H])C(=O)[C@@]([H])(C(=O)N([H])[C@]([H])(C(=O)N([H])[C@]([H])(C(=O)N([H])[C@]([H])(C(=O)N([H])[H])C([H])([H])C([H])(C([H])([H])[H])C([H])([H])[H])C([H])([H])C([H])([H])C(=O)N([H])[H])C([H])([H])C([H])([H])C(=O)N([H])[H])N([H])C(=O)C([H])([H])[H])C([H])([H])C([H])([H])C([H])([H])N=C(N([H])[H])N([H])[H])c([H])c1[H]


 77 77  0  0  0  0  0  0  0  0999 V2000
    9.5166   48.3847  134.0810 C   0  0  0  0  0  0  0  0  0  0  0  0
    8.3589   48.8399  134.7900 N   0  0  0  0  0  0  0  0  0  0  0  0
    8.0274   48.4921  136.0878 C   0  0  0  0  0  0  0  0  0  0  0  0
    6.7963   49.0145  136.7783 C   0  0  0  0  0  0  0  0  0  0  0  0
    8.7143   47.7027  136.8432 O   0  0  0  0  0  0  0  0  0  0  0  0
    7.6708   49.5063  134.2974 H   0  0  0  0  0  0  0  0  0  0  0  0
    9.5369   46.9183  134.0564 C   0  0  0  0  0  0  0  0  0  0  0  0
   10.6150   46.4020  134.5421 O   0  0  0  0  0  0  0  0  0  0  0  0
    8.5235   46.0765  133.5759 N   0  0  0  0  0  0  0  0  0  0  0  0
    7.6492   46.5048  133.1975 H   0  0  0  0  0  0  0  0  0  0  0  0
    8.5835   44.6491  133.5552 C   0  0  0  0  0  0  0  0  0  0  0  0
    9.9113   44.1185  133.2643 C   0  0  0  0  0  0  0  0  0  0  0  0
   10.2591   43.1117  134.0135 O   0  0  0  0  0  0  0  0  0  0  0  0
   10.8508   44.5170  132.3313 N   0  0  0  0  0  0  0  0  0  0  0  0
   10.6437   45.3112  131.6850 H   0  0  0  0  0  0  0  0  0  0  0  0
   12.1453   43.8015  132.2551 C   0  0  0  0  0  0  0  0  0  0  0  0
   12.9427   44.2823  133.3929 C   0  0  0  0  0  0  0  0  0  0  0  0
   13.3105   43.4073  134.4347 N   0  0  0  0  0  0  0  0  0  0  0  0
   13.3038   45.4691  133.4647 O   0  0  0  0  0  0  0  0  0  0  0  0
   14.1058   43.5700  135.0742 H   0  0  0  0  0  0  0  0  0  0  0  0
   12.7477   42.5318  134.5911 H   0  0  0  0  0  0  0  0  0  0  0  0
   12.7527   43.9391  130.9124 C   0  0  0  0  0  0  0  0  0  0  0  0
   11.8644   43.8787  129.7593 C   0  0  0  0  0  0  0  0  0  0  0  0
   10.7795   43.0093  129.6930 C   0  0  0  0  0  0  0  0  0  0  0  0
    9.9308   42.9533  128.6250 C   0  0  0  0  0  0  0  0  0  0  0  0
   10.1520   43.8016  127.5463 C   0  0  0  0  0  0  0  0  0  0  0  0
   11.2161   44.6765  127.5743 C   0  0  0  0  0  0  0  0  0  0  0  0
   12.0557   44.7145  128.6586 C   0  0  0  0  0  0  0  0  0  0  0  0
    7.4957   44.0102  132.6944 C   0  0  0  0  0  0  0  0  0  0  0  0
    7.9571   43.4351  131.4082 C   0  0  0  0  0  0  0  0  0  0  0  0
    7.8854   41.8958  131.6180 C   0  0  0  0  0  0  0  0  0  0  0  0
    6.7787   41.5788  132.4571 N   0  0  0  0  0  0  0  0  0  0  0  0
    6.9294   41.2570  133.6856 C   0  0  0  0  0  0  0  0  0  0  0  0
    5.7895   40.9405  134.4989 N   0  0  0  0  0  0  0  0  0  0  0  0
    8.2030   41.2077  134.3164 N   0  0  0  0  0  0  0  0  0  0  0  0
    5.8832   40.9855  135.5180 H   0  0  0  0  0  0  0  0  0  0  0  0
    4.9113   40.6815  134.0304 H   0  0  0  0  0  0  0  0  0  0  0  0
    8.4701   41.9873  134.9436 H   0  0  0  0  0  0  0  0  0  0  0  0
    8.8554   40.4229  134.1648 H   0  0  0  0  0  0  0  0  0  0  0  0
    9.4266   48.4874  131.5584 N   0  0  0  0  0  0  0  0  0  0  0  0
    9.7341   49.0516  132.7939 C   0  0  0  0  0  0  0  0  0  0  0  0
   10.2506   50.2211  132.8235 O   0  0  0  0  0  0  0  0  0  0  0  0
    8.9814   47.5066  131.6114 H   0  0  0  0  0  0  0  0  0  0  0  0
    9.6352   49.0487  130.2287 C   0  0  0  0  0  0  0  0  0  0  0  0
    7.8901   50.0791  128.5871 N   0  0  0  0  0  0  0  0  0  0  0  0
    8.4241   49.7760  129.8349 C   0  0  0  0  0  0  0  0  0  0  0  0
    7.7445   50.2121  130.8533 O   0  0  0  0  0  0  0  0  0  0  0  0
    8.3439   49.7738  127.7200 H   0  0  0  0  0  0  0  0  0  0  0  0
    6.6545   50.8604  128.4679 C   0  0  0  0  0  0  0  0  0  0  0  0
    7.2593   52.9381  127.1495 N   0  0  0  0  0  0  0  0  0  0  0  0
    6.9478   52.3361  128.3750 C   0  0  0  0  0  0  0  0  0  0  0  0
    6.9123   53.0216  129.4219 O   0  0  0  0  0  0  0  0  0  0  0  0
    7.2839   52.2625  126.3133 H   0  0  0  0  0  0  0  0  0  0  0  0
    7.5513   54.2908  126.8251 C   0  0  0  0  0  0  0  0  0  0  0  0
    6.2992   55.0454  126.4664 C   0  0  0  0  0  0  0  0  0  0  0  0
    5.1965   54.4885  125.8102 N   0  0  0  0  0  0  0  0  0  0  0  0
    6.2449   56.2826  126.7881 O   0  0  0  0  0  0  0  0  0  0  0  0
    4.9015   54.8865  124.8816 H   0  0  0  0  0  0  0  0  0  0  0  0
    4.6111   53.6911  126.1437 H   0  0  0  0  0  0  0  0  0  0  0  0
    8.4890   54.4757  125.6935 C   0  0  0  0  0  0  0  0  0  0  0  0
    8.5527   56.0111  123.7217 C   0  0  0  0  0  0  0  0  0  0  0  0
    7.9996   54.7288  124.3400 C   0  0  0  0  0  0  0  0  0  0  0  0
    8.1120   53.6494  123.3139 C   0  0  0  0  0  0  0  0  0  0  0  0
    5.7294   50.6267  129.6494 C   0  0  0  0  0  0  0  0  0  0  0  0
    4.6985   49.6086  129.2935 C   0  0  0  0  0  0  0  0  0  0  0  0
    5.2154   48.2596  128.9897 C   0  0  0  0  0  0  0  0  0  0  0  0
    4.8489   47.1221  129.7725 N   0  0  0  0  0  0  0  0  0  0  0  0
    5.9965   48.0785  128.0250 O   0  0  0  0  0  0  0  0  0  0  0  0
    5.3633   46.2364  129.6323 H   0  0  0  0  0  0  0  0  0  0  0  0
    4.0886   47.1511  130.4792 H   0  0  0  0  0  0  0  0  0  0  0  0
    9.9812   47.9842  129.1819 C   0  0  0  0  0  0  0  0  0  0  0  0
    9.7717   46.5873  129.6936 C   0  0  0  0  0  0  0  0  0  0  0  0
    8.3049   46.3112  129.7283 C   0  0  0  0  0  0  0  0  0  0  0  0
    7.7321   45.7371  128.5689 N   0  0  0  0  0  0  0  0  0  0  0  0
    7.6591   46.5896  130.7486 O   0  0  0  0  0  0  0  0  0  0  0  0
    7.8955   46.0919  127.5862 H   0  0  0  0  0  0  0  0  0  0  0  0
    7.1047   44.9136  128.6835 H   0  0  0  0  0  0  0  0  0  0  0  0
 61 62  1  0  0  0
 62 63  1  0  0  0
 62 60  1  0  0  0
 60 54  1  0  0  0
 54 50  1  0  0  0
 50 51  1  0  0  0
 51 52  2  0  0  0
 51 49  1  0  0  0
 49 64  1  0  0  0
 64 65  1  0  0  0
 65 66  1  0  0  0
 66 67  1  0  0  0
 66 68  2  0  0  0
 49 45  1  0  0  0
 45 46  1  0  0  0
 46 47  2  0  0  0
 46 44  1  0  0  0
 44 71  1  0  0  0
 71 72  1  0  0  0
 72 73  1  0  0  0
 73 74  1  0  0  0
 73 75  2  0  0  0
 44 40  1  0  0  0
 40 41  1  0  0  0
 41 42  2  0  0  0
 41  1  1  0  0  0
  1  2  1  0  0  0
  2  3  1  0  0  0
  3  4  1  0  0  0
  3  5  2  0  0  0
  1  7  1  0  0  0
  7  8  2  0  0  0
  7  9  1  0  0  0
  9 11  1  0  0  0
 11 29  1  0  0  0
 29 30  1  0  0  0
 30 31  1  0  0  0
 31 32  1  0  0  0
 32 33  2  0  0  0
 33 34  1  0  0  0
 33 35  1  0  0  0
 11 12  1  0  0  0
 12 13  2  0  0  0
 12 14  1  0  0  0
 14 16  1  0  0  0
 16 22  1  0  0  0
 22 23  1  0  0  0
 23 24  2  0  0  0
 24 25  1  0  0  0
 25 26  2  0  0  0
 26 27  1  0  0  0
 27 28  2  0  0  0
 16 17  1  0  0  0
 17 18  1  0  0  0
 17 19  2  0  0  0
 54 55  1  0  0  0
 55 56  1  0  0  0
 55 57  2  0  0  0
 28 23  1  0  0  0
 50 53  1  0  0  0
 67 69  1  0  0  0
 67 70  1  0  0  0
 45 48  1  0  0  0
 74 76  1  0  0  0
 74 77  1  0  0  0
 40 43  1  0  0  0
  2  6  1  0  0  0
  9 10  1  0  0  0
 34 36  1  0  0  0
 34 37  1  0  0  0
 35 38  1  0  0  0
 35 39  1  0  0  0
 14 15  1  0  0  0
 18 20  1  0  0  0
 18 21  1  0  0  0
 56 58  1  0  0  0
 56 59  1  0  0  0
M  END
> <minimizedAffinity>
7.40152

> <CNNscore>
0.4609894156

> <CNNaffinity>
8.5946292877

> <CNN_VS>
3.9620330334

> <CNNaffinity_variance>
0.5255380869

$$$$
[H]c1c([H])c([H])c(C([H])([H])[C@@]([H])(C(=O)N([H])[H])N([H])C(=O)[C@@]([H])(N([H])C(=O)[C@@]([H])(C(=O)N([H])[C@]([H])(C(=O)N([H])[C@]([H])(C(=O)N([H])[C@]([H])(C(=O)N([H])[H])C([H])([H])C([H])(C([H])([H])[H])C([H])([H])[H])C([H])([H])C([H])([H])C(=O)N([H])[H])C([H])([H])C([H])([H])C(=O)N([H])[H])N([H])C(=O)C([H])([H])[H])C([H])([H])C([H])([H])C([H])([H])N=C(N([H])[H])N([H])[H])c([H])c1[H]


 77 77  0  0  0  0  0  0  0  0999 V2000
   10.3375   47.9573  133.2755 C   0  0  0  0  0  0  0  0  0  0  0  0
    9.0797   48.0994  133.9449 N   0  0  0  0  0  0  0  0  0  0  0  0
    8.7282   47.4741  135.1284 C   0  0  0  0  0  0  0  0  0  0  0  0
    7.3884   47.6741  135.7845 C   0  0  0  0  0  0  0  0  0  0  0  0
    9.4845   46.6690  135.7957 O   0  0  0  0  0  0  0  0  0  0  0  0
    8.3256   48.7365  133.5141 H   0  0  0  0  0  0  0  0  0  0  0  0
   10.8092   46.5738  133.3972 C   0  0  0  0  0  0  0  0  0  0  0  0
   10.0570   45.7106  132.8024 O   0  0  0  0  0  0  0  0  0  0  0  0
   11.9601   46.1396  134.0705 N   0  0  0  0  0  0  0  0  0  0  0  0
   12.5694   46.8485  134.5368 H   0  0  0  0  0  0  0  0  0  0  0  0
   12.3825   44.7790  134.1801 C   0  0  0  0  0  0  0  0  0  0  0  0
   12.4527   44.0783  132.9021 C   0  0  0  0  0  0  0  0  0  0  0  0
   13.1709   42.9923  132.9281 O   0  0  0  0  0  0  0  0  0  0  0  0
   11.8866   44.3868  131.6788 N   0  0  0  0  0  0  0  0  0  0  0  0
   11.2876   45.2367  131.5778 H   0  0  0  0  0  0  0  0  0  0  0  0
   12.1327   43.4965  130.5212 C   0  0  0  0  0  0  0  0  0  0  0  0
   12.5517   44.3723  129.4171 C   0  0  0  0  0  0  0  0  0  0  0  0
   13.9182   44.5757  129.1387 N   0  0  0  0  0  0  0  0  0  0  0  0
   11.7129   44.9566  128.7107 O   0  0  0  0  0  0  0  0  0  0  0  0
   14.2822   44.8948  128.2257 H   0  0  0  0  0  0  0  0  0  0  0  0
   14.6268   44.4037  129.8977 H   0  0  0  0  0  0  0  0  0  0  0  0
   10.9693   42.6174  130.2673 C   0  0  0  0  0  0  0  0  0  0  0  0
    9.9261   42.5668  131.2829 C   0  0  0  0  0  0  0  0  0  0  0  0
   10.1963   42.3079  132.6234 C   0  0  0  0  0  0  0  0  0  0  0  0
    9.2299   42.2726  133.5874 C   0  0  0  0  0  0  0  0  0  0  0  0
    7.9089   42.5054  133.2228 C   0  0  0  0  0  0  0  0  0  0  0  0
    7.6013   42.7650  131.9050 C   0  0  0  0  0  0  0  0  0  0  0  0
    8.5895   42.7950  130.9539 C   0  0  0  0  0  0  0  0  0  0  0  0
   11.6150   43.9906  135.2393 C   0  0  0  0  0  0  0  0  0  0  0  0
   12.2967   42.7764  135.7478 C   0  0  0  0  0  0  0  0  0  0  0  0
   12.6483   43.1127  137.2249 C   0  0  0  0  0  0  0  0  0  0  0  0
   13.3158   42.0045  137.8215 N   0  0  0  0  0  0  0  0  0  0  0  0
   14.5859   41.9765  137.9679 C   0  0  0  0  0  0  0  0  0  0  0  0
   15.2230   40.8400  138.5707 N   0  0  0  0  0  0  0  0  0  0  0  0
   15.4294   43.0492  137.5675 N   0  0  0  0  0  0  0  0  0  0  0  0
   16.1667   40.9495  138.9540 H   0  0  0  0  0  0  0  0  0  0  0  0
   14.7081   39.9502  138.6019 H   0  0  0  0  0  0  0  0  0  0  0  0
   15.7997   43.6813  138.2995 H   0  0  0  0  0  0  0  0  0  0  0  0
   15.6765   43.2073  136.5784 H   0  0  0  0  0  0  0  0  0  0  0  0
    9.3649   48.3524  130.9776 N   0  0  0  0  0  0  0  0  0  0  0  0
   10.3686   48.5301  131.9265 C   0  0  0  0  0  0  0  0  0  0  0  0
   11.3948   49.2252  131.6121 O   0  0  0  0  0  0  0  0  0  0  0  0
    8.5248   47.7678  131.3173 H   0  0  0  0  0  0  0  0  0  0  0  0
    9.3166   48.8461  129.6062 C   0  0  0  0  0  0  0  0  0  0  0  0
    7.5712   50.3754  128.4160 N   0  0  0  0  0  0  0  0  0  0  0  0
    8.2498   49.8477  129.5092 C   0  0  0  0  0  0  0  0  0  0  0  0
    7.8934   50.3183  130.6671 O   0  0  0  0  0  0  0  0  0  0  0  0
    7.7704   50.0654  127.4593 H   0  0  0  0  0  0  0  0  0  0  0  0
    6.5455   51.4084  128.5950 C   0  0  0  0  0  0  0  0  0  0  0  0
    7.3943   53.0785  126.8888 N   0  0  0  0  0  0  0  0  0  0  0  0
    7.0694   52.7701  128.2156 C   0  0  0  0  0  0  0  0  0  0  0  0
    7.2148   53.6286  129.1150 O   0  0  0  0  0  0  0  0  0  0  0  0
    7.2535   52.2694  126.1946 H   0  0  0  0  0  0  0  0  0  0  0  0
    7.8816   54.2796  126.3054 C   0  0  0  0  0  0  0  0  0  0  0  0
    6.7680   55.2693  126.0904 C   0  0  0  0  0  0  0  0  0  0  0  0
    5.4651   54.9294  125.7114 N   0  0  0  0  0  0  0  0  0  0  0  0
    7.0377   56.5072  126.2698 O   0  0  0  0  0  0  0  0  0  0  0  0
    5.0797   55.3132  124.8104 H   0  0  0  0  0  0  0  0  0  0  0  0
    4.8055   54.3125  126.2351 H   0  0  0  0  0  0  0  0  0  0  0  0
    8.5512   54.1132  124.9947 C   0  0  0  0  0  0  0  0  0  0  0  0
    9.0593   55.5261  122.9960 C   0  0  0  0  0  0  0  0  0  0  0  0
    8.0165   54.7399  123.7878 C   0  0  0  0  0  0  0  0  0  0  0  0
    7.2485   53.9055  122.8160 C   0  0  0  0  0  0  0  0  0  0  0  0
    6.0536   51.4646  130.0307 C   0  0  0  0  0  0  0  0  0  0  0  0
    5.5034   50.1368  130.4310 C   0  0  0  0  0  0  0  0  0  0  0  0
    4.7447   49.4215  129.3861 C   0  0  0  0  0  0  0  0  0  0  0  0
    5.1372   48.1265  128.9278 N   0  0  0  0  0  0  0  0  0  0  0  0
    3.7249   49.9397  128.8712 O   0  0  0  0  0  0  0  0  0  0  0  0
    4.6837   47.7403  128.0829 H   0  0  0  0  0  0  0  0  0  0  0  0
    5.8628   47.5597  129.4080 H   0  0  0  0  0  0  0  0  0  0  0  0
    9.0938   47.7297  128.5802 C   0  0  0  0  0  0  0  0  0  0  0  0
    7.7512   47.0723  128.7305 C   0  0  0  0  0  0  0  0  0  0  0  0
    7.8271   46.0930  129.8548 C   0  0  0  0  0  0  0  0  0  0  0  0
    8.9757   45.2688  129.9118 N   0  0  0  0  0  0  0  0  0  0  0  0
    6.9015   46.0401  130.6769 O   0  0  0  0  0  0  0  0  0  0  0  0
    9.3649   44.7324  129.0876 H   0  0  0  0  0  0  0  0  0  0  0  0
    9.4733   45.1768  130.8223 H   0  0  0  0  0  0  0  0  0  0  0  0
 61 62  1  0  0  0
 62 63  1  0  0  0
 62 60  1  0  0  0
 60 54  1  0  0  0
 54 50  1  0  0  0
 50 51  1  0  0  0
 51 52  2  0  0  0
 51 49  1  0  0  0
 49 64  1  0  0  0
 64 65  1  0  0  0
 65 66  1  0  0  0
 66 67  1  0  0  0
 66 68  2  0  0  0
 49 45  1  0  0  0
 45 46  1  0  0  0
 46 47  2  0  0  0
 46 44  1  0  0  0
 44 71  1  0  0  0
 71 72  1  0  0  0
 72 73  1  0  0  0
 73 74  1  0  0  0
 73 75  2  0  0  0
 44 40  1  0  0  0
 40 41  1  0  0  0
 41 42  2  0  0  0
 41  1  1  0  0  0
  1  2  1  0  0  0
  2  3  1  0  0  0
  3  4  1  0  0  0
  3  5  2  0  0  0
  1  7  1  0  0  0
  7  8  2  0  0  0
  7  9  1  0  0  0
  9 11  1  0  0  0
 11 29  1  0  0  0
 29 30  1  0  0  0
 30 31  1  0  0  0
 31 32  1  0  0  0
 32 33  2  0  0  0
 33 34  1  0  0  0
 33 35  1  0  0  0
 11 12  1  0  0  0
 12 13  2  0  0  0
 12 14  1  0  0  0
 14 16  1  0  0  0
 16 22  1  0  0  0
 22 23  1  0  0  0
 23 24  2  0  0  0
 24 25  1  0  0  0
 25 26  2  0  0  0
 26 27  1  0  0  0
 27 28  2  0  0  0
 16 17  1  0  0  0
 17 18  1  0  0  0
 17 19  2  0  0  0
 54 55  1  0  0  0
 55 56  1  0  0  0
 55 57  2  0  0  0
 28 23  1  0  0  0
 50 53  1  0  0  0
 67 69  1  0  0  0
 67 70  1  0  0  0
 45 48  1  0  0  0
 74 76  1  0  0  0
 74 77  1  0  0  0
 40 43  1  0  0  0
  2  6  1  0  0  0
  9 10  1  0  0  0
 34 36  1  0  0  0
 34 37  1  0  0  0
 35 38  1  0  0  0
 35 39  1  0  0  0
 14 15  1  0  0  0
 18 20  1  0  0  0
 18 21  1  0  0  0
 56 58  1  0  0  0
 56 59  1  0  0  0
M  END
> <minimizedAffinity>
9.89016

> <CNNscore>
0.4370806217

> <CNNaffinity>
8.2963962555

> <CNN_VS>
3.6261940002

> <CNNaffinity_variance>
0.3624813557

$$$$
[H]c1c([H])c([H])c(C([H])([H])[C@@]([H])(C(=O)N([H])[H])N([H])C(=O)[C@@]([H])(N([H])C(=O)[C@@]([H])(C(=O)N([H])[C@]([H])(C(=O)N([H])[C@]([H])(C(=O)N([H])[C@]([H])(C(=O)N([H])[H])C([H])([H])C([H])(C([H])([H])[H])C([H])([H])[H])C([H])([H])C([H])([H])C(=O)N([H])[H])C([H])([H])C([H])([H])C(=O)N([H])[H])N([H])C(=O)C([H])([H])[H])C([H])([H])C([H])([H])C([H])([H])N=C(N([H])[H])N([H])[H])c([H])c1[H]


 77 77  0  0  0  0  0  0  0  0999 V2000
    7.4764   47.1231  128.4375 C   0  0  0  0  0  0  0  0  0  0  0  0
    8.8137   47.3675  127.9878 N   0  0  0  0  0  0  0  0  0  0  0  0
    9.9585   47.1785  128.7421 C   0  0  0  0  0  0  0  0  0  0  0  0
   11.3381   47.4478  128.2039 C   0  0  0  0  0  0  0  0  0  0  0  0
    9.9826   46.7585  129.9621 O   0  0  0  0  0  0  0  0  0  0  0  0
    8.9719   47.7307  126.9862 H   0  0  0  0  0  0  0  0  0  0  0  0
    7.4759   46.0337  129.4195 C   0  0  0  0  0  0  0  0  0  0  0  0
    7.5727   44.8582  128.8965 O   0  0  0  0  0  0  0  0  0  0  0  0
    7.3892   46.1648  130.8130 N   0  0  0  0  0  0  0  0  0  0  0  0
    7.3252   47.1219  131.2265 H   0  0  0  0  0  0  0  0  0  0  0  0
    7.3781   45.0779  131.7404 C   0  0  0  0  0  0  0  0  0  0  0  0
    8.0378   45.3764  133.0072 C   0  0  0  0  0  0  0  0  0  0  0  0
    7.3512   45.0345  134.0596 O   0  0  0  0  0  0  0  0  0  0  0  0
    9.2628   45.9648  133.2627 N   0  0  0  0  0  0  0  0  0  0  0  0
    9.8786   46.2583  132.4715 H   0  0  0  0  0  0  0  0  0  0  0  0
    9.6920   46.1651  134.6659 C   0  0  0  0  0  0  0  0  0  0  0  0
    9.6454   47.6156  134.9017 C   0  0  0  0  0  0  0  0  0  0  0  0
    8.5480   48.2022  135.5635 N   0  0  0  0  0  0  0  0  0  0  0  0
   10.5667   48.3559  134.5180 O   0  0  0  0  0  0  0  0  0  0  0  0
    8.5812   49.1187  136.0399 H   0  0  0  0  0  0  0  0  0  0  0  0
    7.6268   47.6933  135.5781 H   0  0  0  0  0  0  0  0  0  0  0  0
   10.9822   45.4899  134.9308 C   0  0  0  0  0  0  0  0  0  0  0  0
   11.6907   44.9164  133.7944 C   0  0  0  0  0  0  0  0  0  0  0  0
   12.0667   43.5773  133.7432 C   0  0  0  0  0  0  0  0  0  0  0  0
   12.7176   43.0239  132.6781 C   0  0  0  0  0  0  0  0  0  0  0  0
   13.0243   43.8283  131.5867 C   0  0  0  0  0  0  0  0  0  0  0  0
   12.6688   45.1595  131.6001 C   0  0  0  0  0  0  0  0  0  0  0  0
   12.0154   45.6932  132.6819 C   0  0  0  0  0  0  0  0  0  0  0  0
    7.8479   43.7584  131.1317 C   0  0  0  0  0  0  0  0  0  0  0  0
    8.8403   43.0043  131.9344 C   0  0  0  0  0  0  0  0  0  0  0  0
    9.9477   42.6068  130.9175 C   0  0  0  0  0  0  0  0  0  0  0  0
    9.3920   42.5407  129.6073 N   0  0  0  0  0  0  0  0  0  0  0  0
    9.9101   43.1648  128.6187 C   0  0  0  0  0  0  0  0  0  0  0  0
    9.3190   43.0767  127.3134 N   0  0  0  0  0  0  0  0  0  0  0  0
   11.0860   43.9555  128.7400 N   0  0  0  0  0  0  0  0  0  0  0  0
    9.8899   43.3144  126.4966 H   0  0  0  0  0  0  0  0  0  0  0  0
    8.3392   42.7728  127.2398 H   0  0  0  0  0  0  0  0  0  0  0  0
   11.9792   43.5623  128.3936 H   0  0  0  0  0  0  0  0  0  0  0  0
   11.0671   44.8982  129.1588 H   0  0  0  0  0  0  0  0  0  0  0  0
    7.2250   49.6273  128.6567 N   0  0  0  0  0  0  0  0  0  0  0  0
    6.7402   48.3319  128.8190 C   0  0  0  0  0  0  0  0  0  0  0  0
    5.5854   48.1697  129.3437 O   0  0  0  0  0  0  0  0  0  0  0  0
    8.1978   49.6877  128.1952 H   0  0  0  0  0  0  0  0  0  0  0  0
    6.5916   50.8858  129.0332 C   0  0  0  0  0  0  0  0  0  0  0  0
    6.8480   53.3111  128.1091 N   0  0  0  0  0  0  0  0  0  0  0  0
    7.0996   51.9441  128.1542 C   0  0  0  0  0  0  0  0  0  0  0  0
    7.9302   51.5000  127.2587 O   0  0  0  0  0  0  0  0  0  0  0  0
    6.2149   53.7632  128.7767 H   0  0  0  0  0  0  0  0  0  0  0  0
    7.4777   54.1581  127.0906 C   0  0  0  0  0  0  0  0  0  0  0  0
    5.4812   54.9048  125.7204 N   0  0  0  0  0  0  0  0  0  0  0  0
    6.5266   55.2188  126.5977 C   0  0  0  0  0  0  0  0  0  0  0  0
    6.6900   56.3978  126.9856 O   0  0  0  0  0  0  0  0  0  0  0  0
    5.4367   53.8702  125.4305 H   0  0  0  0  0  0  0  0  0  0  0  0
    4.4708   55.7233  125.1464 C   0  0  0  0  0  0  0  0  0  0  0  0
    3.2188   55.7064  125.9819 C   0  0  0  0  0  0  0  0  0  0  0  0
    2.2916   54.6592  126.0025 N   0  0  0  0  0  0  0  0  0  0  0  0
    2.9928   56.7236  126.7244 O   0  0  0  0  0  0  0  0  0  0  0  0
    1.2974   54.8530  125.7168 H   0  0  0  0  0  0  0  0  0  0  0  0
    2.4774   53.6687  126.2747 H   0  0  0  0  0  0  0  0  0  0  0  0
    4.0621   55.3449  123.7739 C   0  0  0  0  0  0  0  0  0  0  0  0
    3.2880   53.1348  122.8990 C   0  0  0  0  0  0  0  0  0  0  0  0
    4.4627   54.0659  123.1915 C   0  0  0  0  0  0  0  0  0  0  0  0
    5.3505   54.0615  121.9906 C   0  0  0  0  0  0  0  0  0  0  0  0
    7.9491   53.3428  125.8992 C   0  0  0  0  0  0  0  0  0  0  0  0
    8.8491   54.1690  125.0428 C   0  0  0  0  0  0  0  0  0  0  0  0
    8.5547   54.1389  123.5966 C   0  0  0  0  0  0  0  0  0  0  0  0
    8.1631   52.9344  122.9357 N   0  0  0  0  0  0  0  0  0  0  0  0
    8.6414   55.1829  122.9065 O   0  0  0  0  0  0  0  0  0  0  0  0
    8.1344   52.9217  121.9024 H   0  0  0  0  0  0  0  0  0  0  0  0
    7.9096   52.0700  123.4525 H   0  0  0  0  0  0  0  0  0  0  0  0
    6.8282   51.2542  130.5019 C   0  0  0  0  0  0  0  0  0  0  0  0
    8.2810   51.1969  130.8806 C   0  0  0  0  0  0  0  0  0  0  0  0
    8.5836   49.8263  131.3893 C   0  0  0  0  0  0  0  0  0  0  0  0
    9.9480   49.4873  131.5482 N   0  0  0  0  0  0  0  0  0  0  0  0
    7.6489   49.0547  131.6468 O   0  0  0  0  0  0  0  0  0  0  0  0
   10.6913   49.6500  130.8136 H   0  0  0  0  0  0  0  0  0  0  0  0
   10.2465   49.0450  132.4428 H   0  0  0  0  0  0  0  0  0  0  0  0
 61 62  1  0  0  0
 62 63  1  0  0  0
 62 60  1  0  0  0
 60 54  1  0  0  0
 54 50  1  0  0  0
 50 51  1  0  0  0
 51 52  2  0  0  0
 51 49  1  0  0  0
 49 64  1  0  0  0
 64 65  1  0  0  0
 65 66  1  0  0  0
 66 67  1  0  0  0
 66 68  2  0  0  0
 49 45  1  0  0  0
 45 46  1  0  0  0
 46 47  2  0  0  0
 46 44  1  0  0  0
 44 71  1  0  0  0
 71 72  1  0  0  0
 72 73  1  0  0  0
 73 74  1  0  0  0
 73 75  2  0  0  0
 44 40  1  0  0  0
 40 41  1  0  0  0
 41 42  2  0  0  0
 41  1  1  0  0  0
  1  2  1  0  0  0
  2  3  1  0  0  0
  3  4  1  0  0  0
  3  5  2  0  0  0
  1  7  1  0  0  0
  7  8  2  0  0  0
  7  9  1  0  0  0
  9 11  1  0  0  0
 11 29  1  0  0  0
 29 30  1  0  0  0
 30 31  1  0  0  0
 31 32  1  0  0  0
 32 33  2  0  0  0
 33 34  1  0  0  0
 33 35  1  0  0  0
 11 12  1  0  0  0
 12 13  2  0  0  0
 12 14  1  0  0  0
 14 16  1  0  0  0
 16 22  1  0  0  0
 22 23  1  0  0  0
 23 24  2  0  0  0
 24 25  1  0  0  0
 25 26  2  0  0  0
 26 27  1  0  0  0
 27 28  2  0  0  0
 16 17  1  0  0  0
 17 18  1  0  0  0
 17 19  2  0  0  0
 54 55  1  0  0  0
 55 56  1  0  0  0
 55 57  2  0  0  0
 28 23  1  0  0  0
 50 53  1  0  0  0
 67 69  1  0  0  0
 67 70  1  0  0  0
 45 48  1  0  0  0
 74 76  1  0  0  0
 74 77  1  0  0  0
 40 43  1  0  0  0
  2  6  1  0  0  0
  9 10  1  0  0  0
 34 36  1  0  0  0
 34 37  1  0  0  0
 35 38  1  0  0  0
 35 39  1  0  0  0
 14 15  1  0  0  0
 18 20  1  0  0  0
 18 21  1  0  0  0
 56 58  1  0  0  0
 56 59  1  0  0  0
M  END
> <minimizedAffinity>
1.85436

> <CNNscore>
0.4289301038

> <CNNaffinity>
7.9712371826

> <CNN_VS>
3.4191036224

> <CNNaffinity_variance>
0.2181500942

$$$$
[H]c1c([H])c([H])c(C([H])([H])[C@@]([H])(C(=O)N([H])[H])N([H])C(=O)[C@@]([H])(N([H])C(=O)[C@@]([H])(C(=O)N([H])[C@]([H])(C(=O)N([H])[C@]([H])(C(=O)N([H])[C@]([H])(C(=O)N([H])[H])C([H])([H])C([H])(C([H])([H])[H])C([H])([H])[H])C([H])([H])C([H])([H])C(=O)N([H])[H])C([H])([H])C([H])([H])C(=O)N([H])[H])N([H])C(=O)C([H])([H])[H])C([H])([H])C([H])([H])C([H])([H])N=C(N([H])[H])N([H])[H])c([H])c1[H]


 77 77  0  0  0  0  0  0  0  0999 V2000
   10.3500   48.0002  132.9050 C   0  0  0  0  0  0  0  0  0  0  0  0
    9.1840   47.9290  133.7330 N   0  0  0  0  0  0  0  0  0  0  0  0
    9.0609   47.1599  134.8769 C   0  0  0  0  0  0  0  0  0  0  0  0
    7.8062   47.1374  135.7081 C   0  0  0  0  0  0  0  0  0  0  0  0
    9.9803   46.3926  135.3580 O   0  0  0  0  0  0  0  0  0  0  0  0
    8.3160   48.5087  133.4672 H   0  0  0  0  0  0  0  0  0  0  0  0
   11.0146   46.6931  132.8728 C   0  0  0  0  0  0  0  0  0  0  0  0
   10.4567   45.8422  132.0794 O   0  0  0  0  0  0  0  0  0  0  0  0
   12.1557   46.3177  133.5964 N   0  0  0  0  0  0  0  0  0  0  0  0
   12.6074   47.0189  134.2253 H   0  0  0  0  0  0  0  0  0  0  0  0
   12.7692   45.0282  133.5503 C   0  0  0  0  0  0  0  0  0  0  0  0
   12.8913   44.4807  132.2033 C   0  0  0  0  0  0  0  0  0  0  0  0
   12.5294   43.2340  132.0996 O   0  0  0  0  0  0  0  0  0  0  0  0
   13.3321   45.0705  131.0329 N   0  0  0  0  0  0  0  0  0  0  0  0
   13.6305   46.0717  131.0305 H   0  0  0  0  0  0  0  0  0  0  0  0
   13.3678   44.2707  129.7870 C   0  0  0  0  0  0  0  0  0  0  0  0
   14.7871   44.1494  129.4227 C   0  0  0  0  0  0  0  0  0  0  0  0
   15.4301   42.8954  129.4406 N   0  0  0  0  0  0  0  0  0  0  0  0
   15.4516   45.1480  129.0983 O   0  0  0  0  0  0  0  0  0  0  0  0
   16.2902   42.6778  128.9106 H   0  0  0  0  0  0  0  0  0  0  0  0
   15.0279   42.1219  130.0302 H   0  0  0  0  0  0  0  0  0  0  0  0
   12.4648   44.8396  128.7616 C   0  0  0  0  0  0  0  0  0  0  0  0
   11.1749   44.1922  128.5628 C   0  0  0  0  0  0  0  0  0  0  0  0
   10.3867   44.4202  127.4386 C   0  0  0  0  0  0  0  0  0  0  0  0
    9.1833   43.8088  127.2330 C   0  0  0  0  0  0  0  0  0  0  0  0
    8.7135   42.9132  128.1866 C   0  0  0  0  0  0  0  0  0  0  0  0
    9.4652   42.6612  129.3136 C   0  0  0  0  0  0  0  0  0  0  0  0
   10.6714   43.2880  129.4984 C   0  0  0  0  0  0  0  0  0  0  0  0
   12.1591   44.0324  134.5345 C   0  0  0  0  0  0  0  0  0  0  0  0
   11.4720   42.8706  133.9214 C   0  0  0  0  0  0  0  0  0  0  0  0
    9.9618   43.1149  134.2011 C   0  0  0  0  0  0  0  0  0  0  0  0
    9.1822   42.5227  133.1663 N   0  0  0  0  0  0  0  0  0  0  0  0
    8.3087   43.1876  132.5102 C   0  0  0  0  0  0  0  0  0  0  0  0
    7.5395   42.5547  131.4765 N   0  0  0  0  0  0  0  0  0  0  0  0
    8.0583   44.5678  132.7445 N   0  0  0  0  0  0  0  0  0  0  0  0
    7.0824   43.1419  130.7724 H   0  0  0  0  0  0  0  0  0  0  0  0
    7.4752   41.5282  131.4737 H   0  0  0  0  0  0  0  0  0  0  0  0
    8.4448   45.2568  132.0749 H   0  0  0  0  0  0  0  0  0  0  0  0
    7.5075   44.8911  133.5547 H   0  0  0  0  0  0  0  0  0  0  0  0
    9.4711   48.0304  130.5367 N   0  0  0  0  0  0  0  0  0  0  0  0
   10.1258   48.6388  131.6047 C   0  0  0  0  0  0  0  0  0  0  0  0
   10.5761   49.8260  131.4531 O   0  0  0  0  0  0  0  0  0  0  0  0
    9.1064   47.0364  130.7415 H   0  0  0  0  0  0  0  0  0  0  0  0
    9.2296   48.5619  129.2003 C   0  0  0  0  0  0  0  0  0  0  0  0
    7.5961   50.3958  128.3226 N   0  0  0  0  0  0  0  0  0  0  0  0
    8.1991   49.6013  129.2918 C   0  0  0  0  0  0  0  0  0  0  0  0
    7.7944   49.8040  130.5101 O   0  0  0  0  0  0  0  0  0  0  0  0
    7.8377   50.3088  127.3302 H   0  0  0  0  0  0  0  0  0  0  0  0
    6.5926   51.3999  128.6915 C   0  0  0  0  0  0  0  0  0  0  0  0
    7.2947   53.0721  126.9217 N   0  0  0  0  0  0  0  0  0  0  0  0
    7.0188   52.7812  128.2635 C   0  0  0  0  0  0  0  0  0  0  0  0
    7.1272   53.6725  129.1359 O   0  0  0  0  0  0  0  0  0  0  0  0
    7.1920   52.2362  126.2531 H   0  0  0  0  0  0  0  0  0  0  0  0
    7.6904   54.2849  126.2951 C   0  0  0  0  0  0  0  0  0  0  0  0
    6.5093   55.1912  126.0721 C   0  0  0  0  0  0  0  0  0  0  0  0
    5.3769   54.8511  125.3247 N   0  0  0  0  0  0  0  0  0  0  0  0
    6.5491   56.3526  126.6075 O   0  0  0  0  0  0  0  0  0  0  0  0
    5.1309   55.4292  124.4804 H   0  0  0  0  0  0  0  0  0  0  0  0
    4.7237   54.0582  125.5103 H   0  0  0  0  0  0  0  0  0  0  0  0
    8.3481   54.1244  124.9777 C   0  0  0  0  0  0  0  0  0  0  0  0
    9.0138   56.0488  123.5275 C   0  0  0  0  0  0  0  0  0  0  0  0
    7.9817   54.9679  123.8421 C   0  0  0  0  0  0  0  0  0  0  0  0
    7.5994   54.3213  122.5512 C   0  0  0  0  0  0  0  0  0  0  0  0
    6.3422   51.4157  130.1892 C   0  0  0  0  0  0  0  0  0  0  0  0
    5.0821   50.6801  130.5010 C   0  0  0  0  0  0  0  0  0  0  0  0
    4.5604   49.8246  129.4169 C   0  0  0  0  0  0  0  0  0  0  0  0
    3.5653   50.2926  128.5050 N   0  0  0  0  0  0  0  0  0  0  0  0
    4.9849   48.6534  129.2688 O   0  0  0  0  0  0  0  0  0  0  0  0
    3.1086   49.6112  127.8758 H   0  0  0  0  0  0  0  0  0  0  0  0
    3.2801   51.2897  128.4520 H   0  0  0  0  0  0  0  0  0  0  0  0
    8.8087   47.4815  128.1981 C   0  0  0  0  0  0  0  0  0  0  0  0
    7.3860   47.0404  128.3943 C   0  0  0  0  0  0  0  0  0  0  0  0
    7.3059   46.2489  129.6577 C   0  0  0  0  0  0  0  0  0  0  0  0
    6.1088   46.3514  130.4047 N   0  0  0  0  0  0  0  0  0  0  0  0
    8.2700   45.5482  129.9966 O   0  0  0  0  0  0  0  0  0  0  0  0
    5.6388   47.2656  130.6533 H   0  0  0  0  0  0  0  0  0  0  0  0
    5.6573   45.4738  130.7378 H   0  0  0  0  0  0  0  0  0  0  0  0
 61 62  1  0  0  0
 62 63  1  0  0  0
 62 60  1  0  0  0
 60 54  1  0  0  0
 54 50  1  0  0  0
 50 51  1  0  0  0
 51 52  2  0  0  0
 51 49  1  0  0  0
 49 64  1  0  0  0
 64 65  1  0  0  0
 65 66  1  0  0  0
 66 67  1  0  0  0
 66 68  2  0  0  0
 49 45  1  0  0  0
 45 46  1  0  0  0
 46 47  2  0  0  0
 46 44  1  0  0  0
 44 71  1  0  0  0
 71 72  1  0  0  0
 72 73  1  0  0  0
 73 74  1  0  0  0
 73 75  2  0  0  0
 44 40  1  0  0  0
 40 41  1  0  0  0
 41 42  2  0  0  0
 41  1  1  0  0  0
  1  2  1  0  0  0
  2  3  1  0  0  0
  3  4  1  0  0  0
  3  5  2  0  0  0
  1  7  1  0  0  0
  7  8  2  0  0  0
  7  9  1  0  0  0
  9 11  1  0  0  0
 11 29  1  0  0  0
 29 30  1  0  0  0
 30 31  1  0  0  0
 31 32  1  0  0  0
 32 33  2  0  0  0
 33 34  1  0  0  0
 33 35  1  0  0  0
 11 12  1  0  0  0
 12 13  2  0  0  0
 12 14  1  0  0  0
 14 16  1  0  0  0
 16 22  1  0  0  0
 22 23  1  0  0  0
 23 24  2  0  0  0
 24 25  1  0  0  0
 25 26  2  0  0  0
 26 27  1  0  0  0
 27 28  2  0  0  0
 16 17  1  0  0  0
 17 18  1  0  0  0
 17 19  2  0  0  0
 54 55  1  0  0  0
 55 56  1  0  0  0
 55 57  2  0  0  0
 28 23  1  0  0  0
 50 53  1  0  0  0
 67 69  1  0  0  0
 67 70  1  0  0  0
 45 48  1  0  0  0
 74 76  1  0  0  0
 74 77  1  0  0  0
 40 43  1  0  0  0
  2  6  1  0  0  0
  9 10  1  0  0  0
 34 36  1  0  0  0
 34 37  1  0  0  0
 35 38  1  0  0  0
 35 39  1  0  0  0
 14 15  1  0  0  0
 18 20  1  0  0  0
 18 21  1  0  0  0
 56 58  1  0  0  0
 56 59  1  0  0  0
M  END
> <minimizedAffinity>
4.79747

> <CNNscore>
0.4266569316

> <CNNaffinity>
8.3164110184

> <CNN_VS>
3.5482544899

> <CNNaffinity_variance>
0.4943163395

$$$$
[H]c1c([H])c([H])c(C([H])([H])[C@@]([H])(C(=O)N([H])[H])N([H])C(=O)[C@@]([H])(N([H])C(=O)[C@@]([H])(C(=O)N([H])[C@]([H])(C(=O)N([H])[C@]([H])(C(=O)N([H])[C@]([H])(C(=O)N([H])[H])C([H])([H])C([H])(C([H])([H])[H])C([H])([H])[H])C([H])([H])C([H])([H])C(=O)N([H])[H])C([H])([H])C([H])([H])C(=O)N([H])[H])N([H])C(=O)C([H])([H])[H])C([H])([H])C([H])([H])C([H])([H])N=C(N([H])[H])N([H])[H])c([H])c1[H]


 77 77  0  0  0  0  0  0  0  0999 V2000
    9.0407   47.6736  134.4721 C   0  0  0  0  0  0  0  0  0  0  0  0
    7.7388   48.0733  134.9143 N   0  0  0  0  0  0  0  0  0  0  0  0
    7.4291   48.5241  136.1856 C   0  0  0  0  0  0  0  0  0  0  0  0
    6.0373   48.9373  136.5830 C   0  0  0  0  0  0  0  0  0  0  0  0
    8.2711   48.6442  137.1562 O   0  0  0  0  0  0  0  0  0  0  0  0
    6.9135   48.0277  134.2236 H   0  0  0  0  0  0  0  0  0  0  0  0
    9.0598   46.2264  134.2344 C   0  0  0  0  0  0  0  0  0  0  0  0
    9.9690   45.5989  134.9010 O   0  0  0  0  0  0  0  0  0  0  0  0
    8.2052   45.5075  133.3862 N   0  0  0  0  0  0  0  0  0  0  0  0
    7.4638   46.0237  132.8619 H   0  0  0  0  0  0  0  0  0  0  0  0
    8.2618   44.0965  133.1684 C   0  0  0  0  0  0  0  0  0  0  0  0
    9.5947   43.5267  133.3354 C   0  0  0  0  0  0  0  0  0  0  0  0
    9.6266   42.4506  134.0680 O   0  0  0  0  0  0  0  0  0  0  0  0
   10.8175   43.9495  132.8475 N   0  0  0  0  0  0  0  0  0  0  0  0
   10.8751   44.7994  132.2427 H   0  0  0  0  0  0  0  0  0  0  0  0
   12.0375   43.1808  133.1850 C   0  0  0  0  0  0  0  0  0  0  0  0
   12.8764   44.0825  133.9882 C   0  0  0  0  0  0  0  0  0  0  0  0
   12.7953   45.4796  133.8218 N   0  0  0  0  0  0  0  0  0  0  0  0
   13.6784   43.6340  134.8246 O   0  0  0  0  0  0  0  0  0  0  0  0
   13.0909   46.1661  134.5354 H   0  0  0  0  0  0  0  0  0  0  0  0
   12.4193   45.8670  132.9183 H   0  0  0  0  0  0  0  0  0  0  0  0
   12.6565   42.6022  131.9715 C   0  0  0  0  0  0  0  0  0  0  0  0
   12.8280   43.4757  130.8182 C   0  0  0  0  0  0  0  0  0  0  0  0
   14.0794   43.8004  130.3029 C   0  0  0  0  0  0  0  0  0  0  0  0
   14.2533   44.6055  129.2139 C   0  0  0  0  0  0  0  0  0  0  0  0
   13.1326   45.1313  128.5817 C   0  0  0  0  0  0  0  0  0  0  0  0
   11.8762   44.8331  129.0625 C   0  0  0  0  0  0  0  0  0  0  0  0
   11.7265   44.0218  130.1586 C   0  0  0  0  0  0  0  0  0  0  0  0
    7.5962   43.6583  131.8656 C   0  0  0  0  0  0  0  0  0  0  0  0
    7.7583   42.2262  131.5179 C   0  0  0  0  0  0  0  0  0  0  0  0
    8.7892   42.2189  130.3536 C   0  0  0  0  0  0  0  0  0  0  0  0
    8.4812   43.2643  129.4360 N   0  0  0  0  0  0  0  0  0  0  0  0
    9.0263   43.3354  128.2813 C   0  0  0  0  0  0  0  0  0  0  0  0
    8.6930   44.4064  127.3853 N   0  0  0  0  0  0  0  0  0  0  0  0
    9.9636   42.3737  127.8134 N   0  0  0  0  0  0  0  0  0  0  0  0
    8.8874   44.2918  126.3860 H   0  0  0  0  0  0  0  0  0  0  0  0
    8.2648   45.2559  127.7764 H   0  0  0  0  0  0  0  0  0  0  0  0
    9.6396   41.6644  127.1319 H   0  0  0  0  0  0  0  0  0  0  0  0
   10.9444   42.3691  128.1335 H   0  0  0  0  0  0  0  0  0  0  0  0
    9.0082   48.6619  132.1474 N   0  0  0  0  0  0  0  0  0  0  0  0
    9.5941   48.5077  133.4013 C   0  0  0  0  0  0  0  0  0  0  0  0
   10.6916   49.1170  133.6454 O   0  0  0  0  0  0  0  0  0  0  0  0
    8.0785   48.1309  132.0183 H   0  0  0  0  0  0  0  0  0  0  0  0
    9.4931   49.4341  131.0093 C   0  0  0  0  0  0  0  0  0  0  0  0
    8.1165   50.3363  128.9861 N   0  0  0  0  0  0  0  0  0  0  0  0
    8.3401   50.0265  130.3233 C   0  0  0  0  0  0  0  0  0  0  0  0
    7.3635   50.3106  131.1324 O   0  0  0  0  0  0  0  0  0  0  0  0
    8.8198   50.1441  128.2653 H   0  0  0  0  0  0  0  0  0  0  0  0
    6.8606   50.9622  128.5593 C   0  0  0  0  0  0  0  0  0  0  0  0
    7.3882   52.9940  127.1400 N   0  0  0  0  0  0  0  0  0  0  0  0
    7.0253   52.4497  128.3783 C   0  0  0  0  0  0  0  0  0  0  0  0
    6.8346   53.1984  129.3632 O   0  0  0  0  0  0  0  0  0  0  0  0
    7.5485   52.2684  126.3627 H   0  0  0  0  0  0  0  0  0  0  0  0
    7.5834   54.3434  126.7382 C   0  0  0  0  0  0  0  0  0  0  0  0
    6.2810   54.9851  126.3407 C   0  0  0  0  0  0  0  0  0  0  0  0
    5.2951   54.3670  125.5643 N   0  0  0  0  0  0  0  0  0  0  0  0
    6.0656   56.1796  126.7455 O   0  0  0  0  0  0  0  0  0  0  0  0
    5.0204   54.8037  124.6471 H   0  0  0  0  0  0  0  0  0  0  0  0
    4.7826   53.4871  125.7943 H   0  0  0  0  0  0  0  0  0  0  0  0
    8.5068   54.5298  125.5952 C   0  0  0  0  0  0  0  0  0  0  0  0
    8.6259   56.0275  123.5971 C   0  0  0  0  0  0  0  0  0  0  0  0
    8.0008   54.7967  124.2505 C   0  0  0  0  0  0  0  0  0  0  0  0
    8.0102   53.6970  123.2400 C   0  0  0  0  0  0  0  0  0  0  0  0
    5.7463   50.7197  129.5622 C   0  0  0  0  0  0  0  0  0  0  0  0
    4.8305   49.6561  129.0561 C   0  0  0  0  0  0  0  0  0  0  0  0
    5.4209   48.3074  128.9475 C   0  0  0  0  0  0  0  0  0  0  0  0
    6.3358   47.9709  127.9031 N   0  0  0  0  0  0  0  0  0  0  0  0
    5.1304   47.4154  129.7803 O   0  0  0  0  0  0  0  0  0  0  0  0
    6.5886   46.9780  127.7653 H   0  0  0  0  0  0  0  0  0  0  0  0
    6.7541   48.6841  127.2748 H   0  0  0  0  0  0  0  0  0  0  0  0
   10.3211   48.5942  130.0307 C   0  0  0  0  0  0  0  0  0  0  0  0
    9.4810   47.6119  129.2648 C   0  0  0  0  0  0  0  0  0  0  0  0
    9.0279   46.5435  130.2041 C   0  0  0  0  0  0  0  0  0  0  0  0
    7.6845   46.1147  130.0888 N   0  0  0  0  0  0  0  0  0  0  0  0
    9.8278   46.0835  131.0311 O   0  0  0  0  0  0  0  0  0  0  0  0
    6.8540   46.7672  130.0344 H   0  0  0  0  0  0  0  0  0  0  0  0
    7.4933   45.0912  130.0584 H   0  0  0  0  0  0  0  0  0  0  0  0
 61 62  1  0  0  0
 62 63  1  0  0  0
 62 60  1  0  0  0
 60 54  1  0  0  0
 54 50  1  0  0  0
 50 51  1  0  0  0
 51 52  2  0  0  0
 51 49  1  0  0  0
 49 64  1  0  0  0
 64 65  1  0  0  0
 65 66  1  0  0  0
 66 67  1  0  0  0
 66 68  2  0  0  0
 49 45  1  0  0  0
 45 46  1  0  0  0
 46 47  2  0  0  0
 46 44  1  0  0  0
 44 71  1  0  0  0
 71 72  1  0  0  0
 72 73  1  0  0  0
 73 74  1  0  0  0
 73 75  2  0  0  0
 44 40  1  0  0  0
 40 41  1  0  0  0
 41 42  2  0  0  0
 41  1  1  0  0  0
  1  2  1  0  0  0
  2  3  1  0  0  0
  3  4  1  0  0  0
  3  5  2  0  0  0
  1  7  1  0  0  0
  7  8  2  0  0  0
  7  9  1  0  0  0
  9 11  1  0  0  0
 11 29  1  0  0  0
 29 30  1  0  0  0
 30 31  1  0  0  0
 31 32  1  0  0  0
 32 33  2  0  0  0
 33 34  1  0  0  0
 33 35  1  0  0  0
 11 12  1  0  0  0
 12 13  2  0  0  0
 12 14  1  0  0  0
 14 16  1  0  0  0
 16 22  1  0  0  0
 22 23  1  0  0  0
 23 24  2  0  0  0
 24 25  1  0  0  0
 25 26  2  0  0  0
 26 27  1  0  0  0
 27 28  2  0  0  0
 16 17  1  0  0  0
 17 18  1  0  0  0
 17 19  2  0  0  0
 54 55  1  0  0  0
 55 56  1  0  0  0
 55 57  2  0  0  0
 28 23  1  0  0  0
 50 53  1  0  0  0
 67 69  1  0  0  0
 67 70  1  0  0  0
 45 48  1  0  0  0
 74 76  1  0  0  0
 74 77  1  0  0  0
 40 43  1  0  0  0
  2  6  1  0  0  0
  9 10  1  0  0  0
 34 36  1  0  0  0
 34 37  1  0  0  0
 35 38  1  0  0  0
 35 39  1  0  0  0
 14 15  1  0  0  0
 18 20  1  0  0  0
 18 21  1  0  0  0
 56 58  1  0  0  0
 56 59  1  0  0  0
M  END
> <minimizedAffinity>
6.75200

> <CNNscore>
0.4084194005

> <CNNaffinity>
8.2707548141

> <CNN_VS>
3.3779368401

> <CNNaffinity_variance>
0.4867681563

$$$$
[H]c1c([H])c([H])c(C([H])([H])[C@@]([H])(C(=O)N([H])[H])N([H])C(=O)[C@@]([H])(N([H])C(=O)[C@@]([H])(C(=O)N([H])[C@]([H])(C(=O)N([H])[C@]([H])(C(=O)N([H])[C@]([H])(C(=O)N([H])[H])C([H])([H])C([H])(C([H])([H])[H])C([H])([H])[H])C([H])([H])C([H])([H])C(=O)N([H])[H])C([H])([H])C([H])([H])C(=O)N([H])[H])N([H])C(=O)C([H])([H])[H])C([H])([H])C([H])([H])C([H])([H])N=C(N([H])[H])N([H])[H])c([H])c1[H]


 77 77  0  0  0  0  0  0  0  0999 V2000
   10.9723   48.5991  131.9211 C   0  0  0  0  0  0  0  0  0  0  0  0
   10.2003   49.0331  133.0462 N   0  0  0  0  0  0  0  0  0  0  0  0
    8.8670   48.7338  133.2650 C   0  0  0  0  0  0  0  0  0  0  0  0
    8.1154   49.2168  134.4763 C   0  0  0  0  0  0  0  0  0  0  0  0
    8.1276   48.0229  132.4818 O   0  0  0  0  0  0  0  0  0  0  0  0
   10.6685   49.6457  133.7984 H   0  0  0  0  0  0  0  0  0  0  0  0
   11.2981   47.1761  132.0639 C   0  0  0  0  0  0  0  0  0  0  0  0
   10.3940   46.4919  132.6797 O   0  0  0  0  0  0  0  0  0  0  0  0
   12.4550   46.5332  131.6006 N   0  0  0  0  0  0  0  0  0  0  0  0
   13.1741   47.0941  131.0912 H   0  0  0  0  0  0  0  0  0  0  0  0
   12.7458   45.1445  131.7699 C   0  0  0  0  0  0  0  0  0  0  0  0
   11.9782   44.2695  130.8899 C   0  0  0  0  0  0  0  0  0  0  0  0
   12.3445   43.0204  130.9282 O   0  0  0  0  0  0  0  0  0  0  0  0
   10.9374   44.5569  130.0262 N   0  0  0  0  0  0  0  0  0  0  0  0
   10.5779   45.5345  129.9454 H   0  0  0  0  0  0  0  0  0  0  0  0
   10.3361   43.4646  129.2269 C   0  0  0  0  0  0  0  0  0  0  0  0
    9.9556   44.0652  127.9400 C   0  0  0  0  0  0  0  0  0  0  0  0
    8.9849   43.4552  127.1202 N   0  0  0  0  0  0  0  0  0  0  0  0
   10.4846   45.1175  127.5440 O   0  0  0  0  0  0  0  0  0  0  0  0
    8.4450   43.9530  126.3932 H   0  0  0  0  0  0  0  0  0  0  0  0
    8.7888   42.4277  127.2363 H   0  0  0  0  0  0  0  0  0  0  0  0
    9.2647   42.7780  129.9826 C   0  0  0  0  0  0  0  0  0  0  0  0
    8.6771   43.4831  131.1139 C   0  0  0  0  0  0  0  0  0  0  0  0
    8.5858   42.9197  132.3834 C   0  0  0  0  0  0  0  0  0  0  0  0
    8.0512   43.5751  133.4553 C   0  0  0  0  0  0  0  0  0  0  0  0
    7.5722   44.8683  133.2810 C   0  0  0  0  0  0  0  0  0  0  0  0
    7.6447   45.4603  132.0389 C   0  0  0  0  0  0  0  0  0  0  0  0
    8.1859   44.7817  130.9765 C   0  0  0  0  0  0  0  0  0  0  0  0
   12.7052   44.6912  133.2277 C   0  0  0  0  0  0  0  0  0  0  0  0
   11.4456   44.9865  133.9516 C   0  0  0  0  0  0  0  0  0  0  0  0
   10.8156   43.5919  134.2287 C   0  0  0  0  0  0  0  0  0  0  0  0
   10.8462   43.3230  135.6274 N   0  0  0  0  0  0  0  0  0  0  0  0
   11.9441   43.1620  136.2631 C   0  0  0  0  0  0  0  0  0  0  0  0
   11.9344   42.8887  137.6724 N   0  0  0  0  0  0  0  0  0  0  0  0
   13.2166   43.2561  135.6351 N   0  0  0  0  0  0  0  0  0  0  0  0
   12.7862   43.0627  138.2142 H   0  0  0  0  0  0  0  0  0  0  0  0
   11.0682   42.5294  138.0949 H   0  0  0  0  0  0  0  0  0  0  0  0
   13.7709   44.1192  135.7772 H   0  0  0  0  0  0  0  0  0  0  0  0
   13.5930   42.4934  135.0509 H   0  0  0  0  0  0  0  0  0  0  0  0
    9.3498   48.3792  129.9972 N   0  0  0  0  0  0  0  0  0  0  0  0
   10.4245   49.0053  130.6236 C   0  0  0  0  0  0  0  0  0  0  0  0
   10.9875   49.9920  130.0364 O   0  0  0  0  0  0  0  0  0  0  0  0
    8.9166   47.5653  130.5566 H   0  0  0  0  0  0  0  0  0  0  0  0
    8.7556   48.6810  128.7000 C   0  0  0  0  0  0  0  0  0  0  0  0
    7.4038   50.7513  127.8702 N   0  0  0  0  0  0  0  0  0  0  0  0
    7.9643   49.9094  128.8248 C   0  0  0  0  0  0  0  0  0  0  0  0
    7.7681   50.2592  130.0610 O   0  0  0  0  0  0  0  0  0  0  0  0
    7.4930   50.5604  126.8669 H   0  0  0  0  0  0  0  0  0  0  0  0
    6.6681   51.9558  128.2693 C   0  0  0  0  0  0  0  0  0  0  0  0
    6.2181   53.7991  126.5899 N   0  0  0  0  0  0  0  0  0  0  0  0
    7.1022   53.1534  127.4631 C   0  0  0  0  0  0  0  0  0  0  0  0
    8.2786   53.5636  127.5846 O   0  0  0  0  0  0  0  0  0  0  0  0
    5.2377   53.3600  126.5412 H   0  0  0  0  0  0  0  0  0  0  0  0
    6.3989   54.9352  125.7550 C   0  0  0  0  0  0  0  0  0  0  0  0
    5.0777   55.4642  125.2646 C   0  0  0  0  0  0  0  0  0  0  0  0
    4.1598   56.1647  126.0543 N   0  0  0  0  0  0  0  0  0  0  0  0
    4.7791   55.2566  124.0378 O   0  0  0  0  0  0  0  0  0  0  0  0
    3.1936   55.7687  126.1856 H   0  0  0  0  0  0  0  0  0  0  0  0
    4.3278   57.0670  126.5516 H   0  0  0  0  0  0  0  0  0  0  0  0
    7.2285   54.7021  124.5503 C   0  0  0  0  0  0  0  0  0  0  0  0
    9.0167   56.3136  125.2246 C   0  0  0  0  0  0  0  0  0  0  0  0
    8.1949   55.6986  124.0937 C   0  0  0  0  0  0  0  0  0  0  0  0
    9.1396   55.3425  122.9931 C   0  0  0  0  0  0  0  0  0  0  0  0
    6.8660   52.2692  129.7419 C   0  0  0  0  0  0  0  0  0  0  0  0
    5.6411   51.8986  130.5089 C   0  0  0  0  0  0  0  0  0  0  0  0
    5.3218   50.4576  130.5395 C   0  0  0  0  0  0  0  0  0  0  0  0
    6.0478   49.5458  131.3656 N   0  0  0  0  0  0  0  0  0  0  0  0
    4.3936   49.9953  129.8336 O   0  0  0  0  0  0  0  0  0  0  0  0
    5.9064   48.5310  131.2284 H   0  0  0  0  0  0  0  0  0  0  0  0
    6.7147   49.8624  132.0960 H   0  0  0  0  0  0  0  0  0  0  0  0
    7.8852   47.5388  128.1648 C   0  0  0  0  0  0  0  0  0  0  0  0
    7.0047   46.9429  129.2265 C   0  0  0  0  0  0  0  0  0  0  0  0
    5.5816   47.2256  128.8745 C   0  0  0  0  0  0  0  0  0  0  0  0
    4.5920   46.7355  129.7590 N   0  0  0  0  0  0  0  0  0  0  0  0
    5.3270   47.8641  127.8436 O   0  0  0  0  0  0  0  0  0  0  0  0
    4.5645   45.7464  130.1323 H   0  0  0  0  0  0  0  0  0  0  0  0
    3.8364   47.3844  130.0637 H   0  0  0  0  0  0  0  0  0  0  0  0
 61 62  1  0  0  0
 62 63  1  0  0  0
 62 60  1  0  0  0
 60 54  1  0  0  0
 54 50  1  0  0  0
 50 51  1  0  0  0
 51 52  2  0  0  0
 51 49  1  0  0  0
 49 64  1  0  0  0
 64 65  1  0  0  0
 65 66  1  0  0  0
 66 67  1  0  0  0
 66 68  2  0  0  0
 49 45  1  0  0  0
 45 46  1  0  0  0
 46 47  2  0  0  0
 46 44  1  0  0  0
 44 71  1  0  0  0
 71 72  1  0  0  0
 72 73  1  0  0  0
 73 74  1  0  0  0
 73 75  2  0  0  0
 44 40  1  0  0  0
 40 41  1  0  0  0
 41 42  2  0  0  0
 41  1  1  0  0  0
  1  2  1  0  0  0
  2  3  1  0  0  0
  3  4  1  0  0  0
  3  5  2  0  0  0
  1  7  1  0  0  0
  7  8  2  0  0  0
  7  9  1  0  0  0
  9 11  1  0  0  0
 11 29  1  0  0  0
 29 30  1  0  0  0
 30 31  1  0  0  0
 31 32  1  0  0  0
 32 33  2  0  0  0
 33 34  1  0  0  0
 33 35  1  0  0  0
 11 12  1  0  0  0
 12 13  2  0  0  0
 12 14  1  0  0  0
 14 16  1  0  0  0
 16 22  1  0  0  0
 22 23  1  0  0  0
 23 24  2  0  0  0
 24 25  1  0  0  0
 25 26  2  0  0  0
 26 27  1  0  0  0
 27 28  2  0  0  0
 16 17  1  0  0  0
 17 18  1  0  0  0
 17 19  2  0  0  0
 54 55  1  0  0  0
 55 56  1  0  0  0
 55 57  2  0  0  0
 28 23  1  0  0  0
 50 53  1  0  0  0
 67 69  1  0  0  0
 67 70  1  0  0  0
 45 48  1  0  0  0
 74 76  1  0  0  0
 74 77  1  0  0  0
 40 43  1  0  0  0
  2  6  1  0  0  0
  9 10  1  0  0  0
 34 36  1  0  0  0
 34 37  1  0  0  0
 35 38  1  0  0  0
 35 39  1  0  0  0
 14 15  1  0  0  0
 18 20  1  0  0  0
 18 21  1  0  0  0
 56 58  1  0  0  0
 56 59  1  0  0  0
M  END
> <minimizedAffinity>
10.15905

> <CNNscore>
0.4056856930

> <CNNaffinity>
8.0444622040

> <CNN_VS>
3.2635233402

> <CNNaffinity_variance>
0.2917642295

$$$$
[H]c1c([H])c([H])c(C([H])([H])[C@@]([H])(C(=O)N([H])[H])N([H])C(=O)[C@@]([H])(N([H])C(=O)[C@@]([H])(C(=O)N([H])[C@]([H])(C(=O)N([H])[C@]([H])(C(=O)N([H])[C@]([H])(C(=O)N([H])[H])C([H])([H])C([H])(C([H])([H])[H])C([H])([H])[H])C([H])([H])C([H])([H])C(=O)N([H])[H])C([H])([H])C([H])([H])C(=O)N([H])[H])N([H])C(=O)C([H])([H])[H])C([H])([H])C([H])([H])C([H])([H])N=C(N([H])[H])N([H])[H])c([H])c1[H]


 77 77  0  0  0  0  0  0  0  0999 V2000
    9.9482   49.0297  131.4286 C   0  0  0  0  0  0  0  0  0  0  0  0
    9.0964   49.3493  132.5344 N   0  0  0  0  0  0  0  0  0  0  0  0
    8.6128   48.4415  133.4603 C   0  0  0  0  0  0  0  0  0  0  0  0
    7.7256   48.8468  134.6066 C   0  0  0  0  0  0  0  0  0  0  0  0
    8.8581   47.1745  133.4556 O   0  0  0  0  0  0  0  0  0  0  0  0
    8.7888   50.3711  132.6811 H   0  0  0  0  0  0  0  0  0  0  0  0
   10.6991   47.8041  131.7206 C   0  0  0  0  0  0  0  0  0  0  0  0
   10.3942   46.8096  130.9572 O   0  0  0  0  0  0  0  0  0  0  0  0
   11.6781   47.6399  132.7111 N   0  0  0  0  0  0  0  0  0  0  0  0
   11.9271   48.4555  133.3143 H   0  0  0  0  0  0  0  0  0  0  0  0
   12.3812   46.4246  132.9765 C   0  0  0  0  0  0  0  0  0  0  0  0
   12.4757   45.5340  131.8245 C   0  0  0  0  0  0  0  0  0  0  0  0
   11.5058   44.6693  131.7380 O   0  0  0  0  0  0  0  0  0  0  0  0
   13.4272   45.4613  130.8238 N   0  0  0  0  0  0  0  0  0  0  0  0
   14.2319   46.1276  130.8162 H   0  0  0  0  0  0  0  0  0  0  0  0
   13.2870   44.4370  129.7635 C   0  0  0  0  0  0  0  0  0  0  0  0
   14.6486   44.1629  129.2810 C   0  0  0  0  0  0  0  0  0  0  0  0
   15.2645   42.9204  129.5320 N   0  0  0  0  0  0  0  0  0  0  0  0
   15.2878   45.0207  128.6487 O   0  0  0  0  0  0  0  0  0  0  0  0
   16.0491   42.5402  128.9772 H   0  0  0  0  0  0  0  0  0  0  0  0
   14.9224   42.3319  130.3347 H   0  0  0  0  0  0  0  0  0  0  0  0
   12.2933   44.8524  128.7483 C   0  0  0  0  0  0  0  0  0  0  0  0
   10.9930   44.1957  128.7671 C   0  0  0  0  0  0  0  0  0  0  0  0
   10.6249   43.2891  129.7569 C   0  0  0  0  0  0  0  0  0  0  0  0
    9.4043   42.6783  129.7945 C   0  0  0  0  0  0  0  0  0  0  0  0
    8.4770   42.9691  128.8008 C   0  0  0  0  0  0  0  0  0  0  0  0
    8.8044   43.8615  127.8032 C   0  0  0  0  0  0  0  0  0  0  0  0
   10.0374   44.4627  127.7862 C   0  0  0  0  0  0  0  0  0  0  0  0
   11.8952   45.7067  134.2338 C   0  0  0  0  0  0  0  0  0  0  0  0
   11.6917   44.2449  134.0941 C   0  0  0  0  0  0  0  0  0  0  0  0
   10.4571   43.9331  134.9869 C   0  0  0  0  0  0  0  0  0  0  0  0
    9.3229   43.6802  134.1626 N   0  0  0  0  0  0  0  0  0  0  0  0
    9.3255   42.7673  133.2671 C   0  0  0  0  0  0  0  0  0  0  0  0
    8.1641   42.5446  132.4532 N   0  0  0  0  0  0  0  0  0  0  0  0
   10.4456   41.9225  133.0341 N   0  0  0  0  0  0  0  0  0  0  0  0
    8.0647   41.6461  131.9712 H   0  0  0  0  0  0  0  0  0  0  0  0
    7.4648   43.2955  132.3831 H   0  0  0  0  0  0  0  0  0  0  0  0
   10.4125   40.9532  133.3970 H   0  0  0  0  0  0  0  0  0  0  0  0
   11.2767   42.2505  132.5183 H   0  0  0  0  0  0  0  0  0  0  0  0
    8.0069   49.5970  129.9147 N   0  0  0  0  0  0  0  0  0  0  0  0
    9.2829   49.0797  130.1234 C   0  0  0  0  0  0  0  0  0  0  0  0
    9.9233   48.6034  129.1243 O   0  0  0  0  0  0  0  0  0  0  0  0
    7.5335   49.9936  130.7988 H   0  0  0  0  0  0  0  0  0  0  0  0
    7.2467   49.6604  128.6718 C   0  0  0  0  0  0  0  0  0  0  0  0
    7.3213   51.7640  127.1319 N   0  0  0  0  0  0  0  0  0  0  0  0
    7.0641   51.0696  128.3091 C   0  0  0  0  0  0  0  0  0  0  0  0
    6.5773   51.7814  129.2814 O   0  0  0  0  0  0  0  0  0  0  0  0
    7.6977   51.2940  126.3022 H   0  0  0  0  0  0  0  0  0  0  0  0
    7.0696   53.2060  127.0394 C   0  0  0  0  0  0  0  0  0  0  0  0
    6.4547   54.3786  124.8788 N   0  0  0  0  0  0  0  0  0  0  0  0
    7.4138   53.7341  125.6700 C   0  0  0  0  0  0  0  0  0  0  0  0
    8.5815   53.5824  125.2449 O   0  0  0  0  0  0  0  0  0  0  0  0
    5.4778   54.4418  125.3238 H   0  0  0  0  0  0  0  0  0  0  0  0
    6.5540   54.9606  123.5859 C   0  0  0  0  0  0  0  0  0  0  0  0
    6.7792   53.9087  122.5330 C   0  0  0  0  0  0  0  0  0  0  0  0
    5.9362   53.6863  121.4391 N   0  0  0  0  0  0  0  0  0  0  0  0
    7.8171   53.1699  122.6515 O   0  0  0  0  0  0  0  0  0  0  0  0
    5.4799   52.7441  121.3304 H   0  0  0  0  0  0  0  0  0  0  0  0
    5.6935   54.3724  120.6907 H   0  0  0  0  0  0  0  0  0  0  0  0
    7.6437   55.9512  123.4263 C   0  0  0  0  0  0  0  0  0  0  0  0
    8.3959   56.2786  121.0649 C   0  0  0  0  0  0  0  0  0  0  0  0
    8.7185   55.7432  122.4584 C   0  0  0  0  0  0  0  0  0  0  0  0
   10.1016   56.1890  122.8027 C   0  0  0  0  0  0  0  0  0  0  0  0
    7.8721   53.9806  128.0700 C   0  0  0  0  0  0  0  0  0  0  0  0
    7.4104   55.3987  128.1117 C   0  0  0  0  0  0  0  0  0  0  0  0
    7.6771   56.1904  126.8946 C   0  0  0  0  0  0  0  0  0  0  0  0
    9.0042   56.3861  126.4030 N   0  0  0  0  0  0  0  0  0  0  0  0
    6.7335   56.7147  126.2556 O   0  0  0  0  0  0  0  0  0  0  0  0
    9.1588   57.0825  125.6547 H   0  0  0  0  0  0  0  0  0  0  0  0
    9.8200   55.8591  126.7704 H   0  0  0  0  0  0  0  0  0  0  0  0
    5.8896   48.9552  128.7685 C   0  0  0  0  0  0  0  0  0  0  0  0
    5.8225   47.9966  129.9235 C   0  0  0  0  0  0  0  0  0  0  0  0
    6.7561   46.8634  129.6527 C   0  0  0  0  0  0  0  0  0  0  0  0
    7.1714   46.0940  130.7650 N   0  0  0  0  0  0  0  0  0  0  0  0
    7.1239   46.6451  128.4897 O   0  0  0  0  0  0  0  0  0  0  0  0
    7.5331   46.5036  131.6705 H   0  0  0  0  0  0  0  0  0  0  0  0
    7.1241   45.0559  130.6933 H   0  0  0  0  0  0  0  0  0  0  0  0
 61 62  1  0  0  0
 62 63  1  0  0  0
 62 60  1  0  0  0
 60 54  1  0  0  0
 54 50  1  0  0  0
 50 51  1  0  0  0
 51 52  2  0  0  0
 51 49  1  0  0  0
 49 64  1  0  0  0
 64 65  1  0  0  0
 65 66  1  0  0  0
 66 67  1  0  0  0
 66 68  2  0  0  0
 49 45  1  0  0  0
 45 46  1  0  0  0
 46 47  2  0  0  0
 46 44  1  0  0  0
 44 71  1  0  0  0
 71 72  1  0  0  0
 72 73  1  0  0  0
 73 74  1  0  0  0
 73 75  2  0  0  0
 44 40  1  0  0  0
 40 41  1  0  0  0
 41 42  2  0  0  0
 41  1  1  0  0  0
  1  2  1  0  0  0
  2  3  1  0  0  0
  3  4  1  0  0  0
  3  5  2  0  0  0
  1  7  1  0  0  0
  7  8  2  0  0  0
  7  9  1  0  0  0
  9 11  1  0  0  0
 11 29  1  0  0  0
 29 30  1  0  0  0
 30 31  1  0  0  0
 31 32  1  0  0  0
 32 33  2  0  0  0
 33 34  1  0  0  0
 33 35  1  0  0  0
 11 12  1  0  0  0
 12 13  2  0  0  0
 12 14  1  0  0  0
 14 16  1  0  0  0
 16 22  1  0  0  0
 22 23  1  0  0  0
 23 24  2  0  0  0
 24 25  1  0  0  0
 25 26  2  0  0  0
 26 27  1  0  0  0
 27 28  2  0  0  0
 16 17  1  0  0  0
 17 18  1  0  0  0
 17 19  2  0  0  0
 54 55  1  0  0  0
 55 56  1  0  0  0
 55 57  2  0  0  0
 28 23  1  0  0  0
 50 53  1  0  0  0
 67 69  1  0  0  0
 67 70  1  0  0  0
 45 48  1  0  0  0
 74 76  1  0  0  0
 74 77  1  0  0  0
 40 43  1  0  0  0
  2  6  1  0  0  0
  9 10  1  0  0  0
 34 36  1  0  0  0
 34 37  1  0  0  0
 35 38  1  0  0  0
 35 39  1  0  0  0
 14 15  1  0  0  0
 18 20  1  0  0  0
 18 21  1  0  0  0
 56 58  1  0  0  0
 56 59  1  0  0  0
M  END
> <minimizedAffinity>
6.54043

> <CNNscore>
0.3978133202

> <CNNaffinity>
7.8022322655

> <CNN_VS>
3.1038320065

> <CNNaffinity_variance>
0.2730566561

$$$$
[H]c1c([H])c([H])c(C([H])([H])[C@@]([H])(C(=O)N([H])[H])N([H])C(=O)[C@@]([H])(N([H])C(=O)[C@@]([H])(C(=O)N([H])[C@]([H])(C(=O)N([H])[C@]([H])(C(=O)N([H])[C@]([H])(C(=O)N([H])[H])C([H])([H])C([H])(C([H])([H])[H])C([H])([H])[H])C([H])([H])C([H])([H])C(=O)N([H])[H])C([H])([H])C([H])([H])C(=O)N([H])[H])N([H])C(=O)C([H])([H])[H])C([H])([H])C([H])([H])C([H])([H])N=C(N([H])[H])N([H])[H])c([H])c1[H]


 77 77  0  0  0  0  0  0  0  0999 V2000
    5.8446   48.2154  128.2886 C   0  0  0  0  0  0  0  0  0  0  0  0
    4.5422   47.7081  128.5995 N   0  0  0  0  0  0  0  0  0  0  0  0
    4.2286   46.9296  129.6999 C   0  0  0  0  0  0  0  0  0  0  0  0
    2.8335   46.4349  129.9725 C   0  0  0  0  0  0  0  0  0  0  0  0
    5.0686   46.5460  130.6014 O   0  0  0  0  0  0  0  0  0  0  0  0
    3.7208   47.9326  127.9400 H   0  0  0  0  0  0  0  0  0  0  0  0
    5.9456   49.6147  128.7163 C   0  0  0  0  0  0  0  0  0  0  0  0
    5.1184   49.9363  129.6528 O   0  0  0  0  0  0  0  0  0  0  0  0
    6.8315   50.5797  128.2157 N   0  0  0  0  0  0  0  0  0  0  0  0
    7.5063   50.3048  127.4672 H   0  0  0  0  0  0  0  0  0  0  0  0
    6.8927   51.9402  128.6478 C   0  0  0  0  0  0  0  0  0  0  0  0
    7.0145   52.9010  127.5564 C   0  0  0  0  0  0  0  0  0  0  0  0
    6.5845   54.0954  127.8469 O   0  0  0  0  0  0  0  0  0  0  0  0
    7.5044   52.7421  126.2732 N   0  0  0  0  0  0  0  0  0  0  0  0
    7.8779   51.8161  125.9656 H   0  0  0  0  0  0  0  0  0  0  0  0
    7.5006   53.8981  125.3475 C   0  0  0  0  0  0  0  0  0  0  0  0
    8.7080   54.6753  125.6633 C   0  0  0  0  0  0  0  0  0  0  0  0
    8.6684   55.7098  126.6195 N   0  0  0  0  0  0  0  0  0  0  0  0
    9.7862   54.4426  125.0909 O   0  0  0  0  0  0  0  0  0  0  0  0
    9.4988   56.0700  127.1181 H   0  0  0  0  0  0  0  0  0  0  0  0
    7.7453   56.1608  126.8483 H   0  0  0  0  0  0  0  0  0  0  0  0
    6.2108   54.6220  125.4032 C   0  0  0  0  0  0  0  0  0  0  0  0
    5.2513   54.3765  124.3349 C   0  0  0  0  0  0  0  0  0  0  0  0
    5.6392   54.1073  123.0256 C   0  0  0  0  0  0  0  0  0  0  0  0
    4.7508   53.8607  122.0185 C   0  0  0  0  0  0  0  0  0  0  0  0
    3.3905   53.8767  122.3042 C   0  0  0  0  0  0  0  0  0  0  0  0
    2.9670   54.1397  123.5887 C   0  0  0  0  0  0  0  0  0  0  0  0
    3.8786   54.3848  124.5842 C   0  0  0  0  0  0  0  0  0  0  0  0
    7.9177   52.1779  129.7548 C   0  0  0  0  0  0  0  0  0  0  0  0
    7.5442   51.6561  131.0912 C   0  0  0  0  0  0  0  0  0  0  0  0
    7.6603   50.1111  130.9563 C   0  0  0  0  0  0  0  0  0  0  0  0
    8.9562   49.7697  130.4727 N   0  0  0  0  0  0  0  0  0  0  0  0
    9.9574   49.6308  131.2560 C   0  0  0  0  0  0  0  0  0  0  0  0
   11.2491   49.2896  130.7307 N   0  0  0  0  0  0  0  0  0  0  0  0
    9.8572   49.7858  132.6662 N   0  0  0  0  0  0  0  0  0  0  0  0
   11.9488   48.8900  131.3633 H   0  0  0  0  0  0  0  0  0  0  0  0
   11.4298   49.4543  129.7317 H   0  0  0  0  0  0  0  0  0  0  0  0
    9.8388   48.9328  133.2531 H   0  0  0  0  0  0  0  0  0  0  0  0
    9.8042   50.7161  133.1090 H   0  0  0  0  0  0  0  0  0  0  0  0
    6.7922   46.2199  129.5143 N   0  0  0  0  0  0  0  0  0  0  0  0
    6.9450   47.3378  128.6978 C   0  0  0  0  0  0  0  0  0  0  0  0
    8.1158   47.6375  128.2799 O   0  0  0  0  0  0  0  0  0  0  0  0
    5.7764   46.0205  129.8163 H   0  0  0  0  0  0  0  0  0  0  0  0
    7.8198   45.3088  130.0049 C   0  0  0  0  0  0  0  0  0  0  0  0
    8.3994   46.1361  132.4094 N   0  0  0  0  0  0  0  0  0  0  0  0
    8.5975   45.9980  131.0398 C   0  0  0  0  0  0  0  0  0  0  0  0
    9.6573   46.5837  130.5677 O   0  0  0  0  0  0  0  0  0  0  0  0
    7.5985   45.7053  132.8825 H   0  0  0  0  0  0  0  0  0  0  0  0
    9.3321   46.9172  133.2288 C   0  0  0  0  0  0  0  0  0  0  0  0
   11.0256   45.1601  132.5463 N   0  0  0  0  0  0  0  0  0  0  0  0
   10.7500   46.4373  133.0505 C   0  0  0  0  0  0  0  0  0  0  0  0
   11.6871   47.2046  133.3671 O   0  0  0  0  0  0  0  0  0  0  0  0
   10.1546   44.5705  132.3227 H   0  0  0  0  0  0  0  0  0  0  0  0
   12.2623   44.5109  132.2830 C   0  0  0  0  0  0  0  0  0  0  0  0
   12.7265   44.7774  130.8761 C   0  0  0  0  0  0  0  0  0  0  0  0
   13.7131   44.0409  130.2120 N   0  0  0  0  0  0  0  0  0  0  0  0
   12.1755   45.7465  130.2480 O   0  0  0  0  0  0  0  0  0  0  0  0
   14.5807   44.5349  129.8792 H   0  0  0  0  0  0  0  0  0  0  0  0
   13.6914   43.0183  130.0029 H   0  0  0  0  0  0  0  0  0  0  0  0
   12.2444   43.0387  132.4449 C   0  0  0  0  0  0  0  0  0  0  0  0
   11.3212   40.7594  131.9954 C   0  0  0  0  0  0  0  0  0  0  0  0
   11.0522   42.2573  132.1230 C   0  0  0  0  0  0  0  0  0  0  0  0
    9.8268   42.4248  132.9602 C   0  0  0  0  0  0  0  0  0  0  0  0
    8.9796   46.8401  134.7039 C   0  0  0  0  0  0  0  0  0  0  0  0
    8.9259   45.4140  135.1391 C   0  0  0  0  0  0  0  0  0  0  0  0
   10.0761   44.9497  135.9395 C   0  0  0  0  0  0  0  0  0  0  0  0
   10.1420   45.1610  137.3509 N   0  0  0  0  0  0  0  0  0  0  0  0
   11.0330   44.3505  135.3927 O   0  0  0  0  0  0  0  0  0  0  0  0
   11.0338   44.9751  137.8397 H   0  0  0  0  0  0  0  0  0  0  0  0
    9.3303   45.4975  137.9044 H   0  0  0  0  0  0  0  0  0  0  0  0
    8.7445   44.8016  128.8930 C   0  0  0  0  0  0  0  0  0  0  0  0
    9.3609   43.4715  129.2220 C   0  0  0  0  0  0  0  0  0  0  0  0
   10.3474   43.1303  128.1546 C   0  0  0  0  0  0  0  0  0  0  0  0
   10.1244   41.9339  127.4331 N   0  0  0  0  0  0  0  0  0  0  0  0
   11.3032   43.8909  127.9463 O   0  0  0  0  0  0  0  0  0  0  0  0
    9.9088   41.0003  127.8806 H   0  0  0  0  0  0  0  0  0  0  0  0
   10.1780   41.9665  126.3933 H   0  0  0  0  0  0  0  0  0  0  0  0
 61 62  1  0  0  0
 62 63  1  0  0  0
 62 60  1  0  0  0
 60 54  1  0  0  0
 54 50  1  0  0  0
 50 51  1  0  0  0
 51 52  2  0  0  0
 51 49  1  0  0  0
 49 64  1  0  0  0
 64 65  1  0  0  0
 65 66  1  0  0  0
 66 67  1  0  0  0
 66 68  2  0  0  0
 49 45  1  0  0  0
 45 46  1  0  0  0
 46 47  2  0  0  0
 46 44  1  0  0  0
 44 71  1  0  0  0
 71 72  1  0  0  0
 72 73  1  0  0  0
 73 74  1  0  0  0
 73 75  2  0  0  0
 44 40  1  0  0  0
 40 41  1  0  0  0
 41 42  2  0  0  0
 41  1  1  0  0  0
  1  2  1  0  0  0
  2  3  1  0  0  0
  3  4  1  0  0  0
  3  5  2  0  0  0
  1  7  1  0  0  0
  7  8  2  0  0  0
  7  9  1  0  0  0
  9 11  1  0  0  0
 11 29  1  0  0  0
 29 30  1  0  0  0
 30 31  1  0  0  0
 31 32  1  0  0  0
 32 33  2  0  0  0
 33 34  1  0  0  0
 33 35  1  0  0  0
 11 12  1  0  0  0
 12 13  2  0  0  0
 12 14  1  0  0  0
 14 16  1  0  0  0
 16 22  1  0  0  0
 22 23  1  0  0  0
 23 24  2  0  0  0
 24 25  1  0  0  0
 25 26  2  0  0  0
 26 27  1  0  0  0
 27 28  2  0  0  0
 16 17  1  0  0  0
 17 18  1  0  0  0
 17 19  2  0  0  0
 54 55  1  0  0  0
 55 56  1  0  0  0
 55 57  2  0  0  0
 28 23  1  0  0  0
 50 53  1  0  0  0
 67 69  1  0  0  0
 67 70  1  0  0  0
 45 48  1  0  0  0
 74 76  1  0  0  0
 74 77  1  0  0  0
 40 43  1  0  0  0
  2  6  1  0  0  0
  9 10  1  0  0  0
 34 36  1  0  0  0
 34 37  1  0  0  0
 35 38  1  0  0  0
 35 39  1  0  0  0
 14 15  1  0  0  0
 18 20  1  0  0  0
 18 21  1  0  0  0
 56 58  1  0  0  0
 56 59  1  0  0  0
M  END
> <minimizedAffinity>
7.30704

> <CNNscore>
0.3896511793

> <CNNaffinity>
8.1032009125

> <CNN_VS>
3.1574218273

> <CNNaffinity_variance>
0.5974755287

$$$$
[H]OC(=O)c1c([H])c([H])c(C(=O)[C@]2([H])C([H])([H])C([H])([H])[C@]([H])(N([H])C(=O)/C([H])=C(/[H])c3nc([H])c([H])c([H])c3-c3nc([H])c([H])c([H])n3)C([H])([H])C2([H])[H])c([H])c1[H]


 36 39  0  0  0  0  0  0  0  0999 V2000
    7.1781   47.7312  129.0697 C   0  0  0  0  0  0  0  0  0  0  0  0
    6.8923   48.6615  130.2029 C   0  0  0  0  0  0  0  0  0  0  0  0
    7.5118   48.1013  131.4720 C   0  0  0  0  0  0  0  0  0  0  0  0
    6.7265   46.8488  131.7973 C   0  0  0  0  0  0  0  0  0  0  0  0
    7.0615   45.8441  130.6935 C   0  0  0  0  0  0  0  0  0  0  0  0
    6.5726   46.3825  129.3761 C   0  0  0  0  0  0  0  0  0  0  0  0
    7.0817   46.2677  133.0435 N   0  0  0  0  0  0  0  0  0  0  0  0
    8.3806   45.5788  133.1476 C   0  0  0  0  0  0  0  0  0  0  0  0
    9.0105   45.6017  132.0918 O   0  0  0  0  0  0  0  0  0  0  0  0
    6.4541   46.3193  133.8647 H   0  0  0  0  0  0  0  0  0  0  0  0
    8.6348   45.0405  134.4310 C   0  0  0  0  0  0  0  0  0  0  0  0
    9.6091   44.2772  134.8013 C   0  0  0  0  0  0  0  0  0  0  0  0
   10.6600   43.7956  133.9690 C   0  0  0  0  0  0  0  0  0  0  0  0
   11.9676   44.0516  134.1288 N   0  0  0  0  0  0  0  0  0  0  0  0
   12.9698   43.5955  133.3678 C   0  0  0  0  0  0  0  0  0  0  0  0
   12.7247   42.7731  132.2901 C   0  0  0  0  0  0  0  0  0  0  0  0
   11.4130   42.4685  132.0689 C   0  0  0  0  0  0  0  0  0  0  0  0
   10.3722   42.9605  132.8859 C   0  0  0  0  0  0  0  0  0  0  0  0
    9.0354   42.5280  132.5585 C   0  0  0  0  0  0  0  0  0  0  0  0
    8.3954   42.5695  131.4060 N   0  0  0  0  0  0  0  0  0  0  0  0
    7.1596   42.1442  131.1542 C   0  0  0  0  0  0  0  0  0  0  0  0
    6.4353   41.5934  132.1831 C   0  0  0  0  0  0  0  0  0  0  0  0
    7.0442   41.5202  133.4107 C   0  0  0  0  0  0  0  0  0  0  0  0
    8.2899   41.9710  133.5789 N   0  0  0  0  0  0  0  0  0  0  0  0
    8.5697   47.6628  128.6325 C   0  0  0  0  0  0  0  0  0  0  0  0
    8.8547   47.8615  127.4323 O   0  0  0  0  0  0  0  0  0  0  0  0
   11.7476   46.6374  131.3457 C   0  0  0  0  0  0  0  0  0  0  0  0
   11.0962   47.8485  131.4428 C   0  0  0  0  0  0  0  0  0  0  0  0
   10.0673   48.1998  130.5640 C   0  0  0  0  0  0  0  0  0  0  0  0
    9.6437   47.3628  129.5552 C   0  0  0  0  0  0  0  0  0  0  0  0
   10.3238   46.1338  129.4766 C   0  0  0  0  0  0  0  0  0  0  0  0
   11.3322   45.7937  130.3399 C   0  0  0  0  0  0  0  0  0  0  0  0
   13.9918   45.6498  131.8434 O   0  0  0  0  0  0  0  0  0  0  0  0
   12.8237   46.2625  132.2597 C   0  0  0  0  0  0  0  0  0  0  0  0
   12.6752   46.5105  133.4779 O   0  0  0  0  0  0  0  0  0  0  0  0
   14.3700   45.9483  130.9325 H   0  0  0  0  0  0  0  0  0  0  0  0
 33 34  1  0  0  0
 34 35  2  0  0  0
 34 27  1  0  0  0
 27 28  2  0  0  0
 28 29  1  0  0  0
 29 30  2  0  0  0
 30 31  1  0  0  0
 31 32  2  0  0  0
 30 25  1  0  0  0
 25 26  2  0  0  0
 25  1  1  0  0  0
  1  2  1  0  0  0
  2  3  1  0  0  0
  3  4  1  0  0  0
  4  5  1  0  0  0
  5  6  1  0  0  0
  4  7  1  0  0  0
  7  8  1  0  0  0
  8  9  2  0  0  0
  8 11  1  0  0  0
 11 12  2  0  0  0
 12 13  1  0  0  0
 13 14  2  0  0  0
 14 15  1  0  0  0
 15 16  2  0  0  0
 16 17  1  0  0  0
 17 18  2  0  0  0
 18 19  1  0  0  0
 19 20  2  0  0  0
 20 21  1  0  0  0
 21 22  2  0  0  0
 22 23  1  0  0  0
 23 24  2  0  0  0
 32 27  1  0  0  0
  6  1  1  0  0  0
 18 13  1  0  0  0
 24 19  1  0  0  0
 33 36  1  0  0  0
  7 10  1  0  0  0
M  END
> <minimizedAffinity>
12.86884

> <CNNscore>
0.3350597024

> <CNNaffinity>
6.9454355240

> <CNN_VS>
2.3271355629

> <CNNaffinity_variance>
0.4161559641

$$$$
[H]OC(=O)c1c([H])c([H])c(C(=O)[C@]2([H])C([H])([H])C([H])([H])[C@]([H])(N([H])C(=O)/C([H])=C(/[H])c3nc([H])c([H])c([H])c3-c3nc([H])c([H])c([H])n3)C([H])([H])C2([H])[H])c([H])c1[H]


 36 39  0  0  0  0  0  0  0  0999 V2000
    9.1471   48.7462  133.1395 C   0  0  0  0  0  0  0  0  0  0  0  0
   10.1426   47.8417  133.7894 C   0  0  0  0  0  0  0  0  0  0  0  0
   10.5996   46.8019  132.7804 C   0  0  0  0  0  0  0  0  0  0  0  0
    9.3960   45.9220  132.5194 C   0  0  0  0  0  0  0  0  0  0  0  0
    8.3852   46.8010  131.7805 C   0  0  0  0  0  0  0  0  0  0  0  0
    7.9629   47.9277  132.6842 C   0  0  0  0  0  0  0  0  0  0  0  0
    9.6848   44.7992  131.6992 N   0  0  0  0  0  0  0  0  0  0  0  0
   10.7440   44.9313  130.6826 C   0  0  0  0  0  0  0  0  0  0  0  0
   11.2583   46.0482  130.6824 O   0  0  0  0  0  0  0  0  0  0  0  0
    9.1725   43.9060  131.8021 H   0  0  0  0  0  0  0  0  0  0  0  0
   10.9515   43.7547  129.9250 C   0  0  0  0  0  0  0  0  0  0  0  0
   10.3058   42.6374  129.9870 C   0  0  0  0  0  0  0  0  0  0  0  0
    9.2217   42.3428  130.8627 C   0  0  0  0  0  0  0  0  0  0  0  0
    8.0137   41.8911  130.4918 N   0  0  0  0  0  0  0  0  0  0  0  0
    6.9893   41.5936  131.3001 C   0  0  0  0  0  0  0  0  0  0  0  0
    7.0989   41.7355  132.6661 C   0  0  0  0  0  0  0  0  0  0  0  0
    8.3047   42.1900  133.1154 C   0  0  0  0  0  0  0  0  0  0  0  0
    9.3719   42.4966  132.2437 C   0  0  0  0  0  0  0  0  0  0  0  0
   10.6022   42.9324  132.8582 C   0  0  0  0  0  0  0  0  0  0  0  0
   10.7981   43.5393  134.0127 N   0  0  0  0  0  0  0  0  0  0  0  0
   11.9616   43.9115  134.5409 C   0  0  0  0  0  0  0  0  0  0  0  0
   13.1121   43.6527  133.8365 C   0  0  0  0  0  0  0  0  0  0  0  0
   12.9781   43.0221  132.6251 C   0  0  0  0  0  0  0  0  0  0  0  0
   11.7710   42.6817  132.1664 N   0  0  0  0  0  0  0  0  0  0  0  0
    9.6704   49.6415  132.1115 C   0  0  0  0  0  0  0  0  0  0  0  0
   10.8786   49.9597  132.1207 O   0  0  0  0  0  0  0  0  0  0  0  0
    7.0921   51.3365  129.1130 C   0  0  0  0  0  0  0  0  0  0  0  0
    7.7133   50.1228  128.9093 C   0  0  0  0  0  0  0  0  0  0  0  0
    8.5601   49.5626  129.8703 C   0  0  0  0  0  0  0  0  0  0  0  0
    8.8229   50.1841  131.0713 C   0  0  0  0  0  0  0  0  0  0  0  0
    8.1779   51.4209  131.2551 C   0  0  0  0  0  0  0  0  0  0  0  0
    7.3490   51.9666  130.3101 C   0  0  0  0  0  0  0  0  0  0  0  0
    4.9526   51.4241  127.8190 O   0  0  0  0  0  0  0  0  0  0  0  0
    6.2060   51.9291  128.1142 C   0  0  0  0  0  0  0  0  0  0  0  0
    6.6065   52.9434  127.4990 O   0  0  0  0  0  0  0  0  0  0  0  0
    4.4127   51.0394  128.6079 H   0  0  0  0  0  0  0  0  0  0  0  0
 33 34  1  0  0  0
 34 35  2  0  0  0
 34 27  1  0  0  0
 27 28  2  0  0  0
 28 29  1  0  0  0
 29 30  2  0  0  0
 30 31  1  0  0  0
 31 32  2  0  0  0
 30 25  1  0  0  0
 25 26  2  0  0  0
 25  1  1  0  0  0
  1  2  1  0  0  0
  2  3  1  0  0  0
  3  4  1  0  0  0
  4  5  1  0  0  0
  5  6  1  0  0  0
  4  7  1  0  0  0
  7  8  1  0  0  0
  8  9  2  0  0  0
  8 11  1  0  0  0
 11 12  2  0  0  0
 12 13  1  0  0  0
 13 14  2  0  0  0
 14 15  1  0  0  0
 15 16  2  0  0  0
 16 17  1  0  0  0
 17 18  2  0  0  0
 18 19  1  0  0  0
 19 20  2  0  0  0
 20 21  1  0  0  0
 21 22  2  0  0  0
 22 23  1  0  0  0
 23 24  2  0  0  0
 32 27  1  0  0  0
  6  1  1  0  0  0
 18 13  1  0  0  0
 24 19  1  0  0  0
 33 36  1  0  0  0
  7 10  1  0  0  0
M  END
> <minimizedAffinity>
10.95713

> <CNNscore>
0.2468915880

> <CNNaffinity>
7.3341803551

> <CNN_VS>
1.8107473850

> <CNNaffinity_variance>
0.3340963721

$$$$
[H]OC(=O)c1c([H])c([H])c(C(=O)[C@]2([H])C([H])([H])C([H])([H])[C@]([H])(N([H])C(=O)/C([H])=C(/[H])c3nc([H])c([H])c([H])c3-c3nc([H])c([H])c([H])n3)C([H])([H])C2([H])[H])c([H])c1[H]


 36 39  0  0  0  0  0  0  0  0999 V2000
   11.1387   43.7057  134.8155 C   0  0  0  0  0  0  0  0  0  0  0  0
    9.8014   43.1007  134.5378 C   0  0  0  0  0  0  0  0  0  0  0  0
    9.1022   43.9165  133.4637 C   0  0  0  0  0  0  0  0  0  0  0  0
    8.7924   45.2556  134.0976 C   0  0  0  0  0  0  0  0  0  0  0  0
   10.1436   45.9368  134.3223 C   0  0  0  0  0  0  0  0  0  0  0  0
   10.9462   45.1224  135.3006 C   0  0  0  0  0  0  0  0  0  0  0  0
    8.0049   46.1020  133.2728 N   0  0  0  0  0  0  0  0  0  0  0  0
    7.5850   45.5967  131.9533 C   0  0  0  0  0  0  0  0  0  0  0  0
    7.9925   44.4572  131.7352 O   0  0  0  0  0  0  0  0  0  0  0  0
    7.7265   47.0507  133.5780 H   0  0  0  0  0  0  0  0  0  0  0  0
    6.8033   46.5175  131.2169 C   0  0  0  0  0  0  0  0  0  0  0  0
    7.0935   47.1042  130.1030 C   0  0  0  0  0  0  0  0  0  0  0  0
    8.3007   46.9491  129.3631 C   0  0  0  0  0  0  0  0  0  0  0  0
    8.4793   46.1302  128.3151 N   0  0  0  0  0  0  0  0  0  0  0  0
    9.5998   45.9829  127.5981 C   0  0  0  0  0  0  0  0  0  0  0  0
   10.7333   46.7069  127.8965 C   0  0  0  0  0  0  0  0  0  0  0  0
   10.6229   47.5639  128.9526 C   0  0  0  0  0  0  0  0  0  0  0  0
    9.4297   47.7035  129.6941 C   0  0  0  0  0  0  0  0  0  0  0  0
    9.4433   48.6735  130.7619 C   0  0  0  0  0  0  0  0  0  0  0  0
    8.9865   49.9107  130.7816 N   0  0  0  0  0  0  0  0  0  0  0  0
    9.0141   50.7642  131.8024 C   0  0  0  0  0  0  0  0  0  0  0  0
    9.5725   50.3493  132.9868 C   0  0  0  0  0  0  0  0  0  0  0  0
   10.0675   49.0703  133.0334 C   0  0  0  0  0  0  0  0  0  0  0  0
   10.0003   48.2765  131.9617 N   0  0  0  0  0  0  0  0  0  0  0  0
   12.1317   43.5805  133.7522 C   0  0  0  0  0  0  0  0  0  0  0  0
   13.3490   43.6044  134.0325 O   0  0  0  0  0  0  0  0  0  0  0  0
   11.0156   43.2759  129.6081 C   0  0  0  0  0  0  0  0  0  0  0  0
   10.5992   42.3345  130.5250 C   0  0  0  0  0  0  0  0  0  0  0  0
   10.9599   42.4150  131.8733 C   0  0  0  0  0  0  0  0  0  0  0  0
   11.7470   43.4331  132.3647 C   0  0  0  0  0  0  0  0  0  0  0  0
   12.1593   44.3806  131.4099 C   0  0  0  0  0  0  0  0  0  0  0  0
   11.8037   44.2975  130.0891 C   0  0  0  0  0  0  0  0  0  0  0  0
   11.4742   43.6124  127.1717 O   0  0  0  0  0  0  0  0  0  0  0  0
   10.6435   43.1994  128.1976 C   0  0  0  0  0  0  0  0  0  0  0  0
    9.5163   42.7365  127.9100 O   0  0  0  0  0  0  0  0  0  0  0  0
   12.4823   43.4388  127.2962 H   0  0  0  0  0  0  0  0  0  0  0  0
 33 34  1  0  0  0
 34 35  2  0  0  0
 34 27  1  0  0  0
 27 28  2  0  0  0
 28 29  1  0  0  0
 29 30  2  0  0  0
 30 31  1  0  0  0
 31 32  2  0  0  0
 30 25  1  0  0  0
 25 26  2  0  0  0
 25  1  1  0  0  0
  1  2  1  0  0  0
  2  3  1  0  0  0
  3  4  1  0  0  0
  4  5  1  0  0  0
  5  6  1  0  0  0
  4  7  1  0  0  0
  7  8  1  0  0  0
  8  9  2  0  0  0
  8 11  1  0  0  0
 11 12  2  0  0  0
 12 13  1  0  0  0
 13 14  2  0  0  0
 14 15  1  0  0  0
 15 16  2  0  0  0
 16 17  1  0  0  0
 17 18  2  0  0  0
 18 19  1  0  0  0
 19 20  2  0  0  0
 20 21  1  0  0  0
 21 22  2  0  0  0
 22 23  1  0  0  0
 23 24  2  0  0  0
 32 27  1  0  0  0
  6  1  1  0  0  0
 18 13  1  0  0  0
 24 19  1  0  0  0
 33 36  1  0  0  0
  7 10  1  0  0  0
M  END
> <minimizedAffinity>
0.42215

> <CNNscore>
0.2153136283

> <CNNaffinity>
7.2415947914

> <CNN_VS>
1.5592139959

> <CNNaffinity_variance>
0.1236842647

$$$$
[H]OC(=O)c1c([H])c([H])c(C(=O)[C@]2([H])C([H])([H])C([H])([H])[C@]([H])(N([H])C(=O)/C([H])=C(/[H])c3nc([H])c([H])c([H])c3-c3nc([H])c([H])c([H])n3)C([H])([H])C2([H])[H])c([H])c1[H]


 36 39  0  0  0  0  0  0  0  0999 V2000
    7.9581   48.4890  131.3196 C   0  0  0  0  0  0  0  0  0  0  0  0
    7.9354   47.6792  132.5746 C   0  0  0  0  0  0  0  0  0  0  0  0
    8.4136   46.2709  132.2641 C   0  0  0  0  0  0  0  0  0  0  0  0
    7.3423   45.6537  131.3908 C   0  0  0  0  0  0  0  0  0  0  0  0
    7.3942   46.4118  130.0631 C   0  0  0  0  0  0  0  0  0  0  0  0
    7.0361   47.8528  130.3073 C   0  0  0  0  0  0  0  0  0  0  0  0
    7.5591   44.2767  131.1198 N   0  0  0  0  0  0  0  0  0  0  0  0
    8.4815   43.9168  130.0279 C   0  0  0  0  0  0  0  0  0  0  0  0
    8.9611   44.9041  129.4735 O   0  0  0  0  0  0  0  0  0  0  0  0
    7.0879   43.5353  131.6669 H   0  0  0  0  0  0  0  0  0  0  0  0
    8.6268   42.5214  129.8461 C   0  0  0  0  0  0  0  0  0  0  0  0
    8.3304   41.5709  130.6695 C   0  0  0  0  0  0  0  0  0  0  0  0
    7.7861   41.7324  131.9758 C   0  0  0  0  0  0  0  0  0  0  0  0
    6.5533   41.3697  132.3628 N   0  0  0  0  0  0  0  0  0  0  0  0
    6.0304   41.4982  133.5880 C   0  0  0  0  0  0  0  0  0  0  0  0
    6.7623   42.0480  134.6177 C   0  0  0  0  0  0  0  0  0  0  0  0
    8.0295   42.4386  134.2955 C   0  0  0  0  0  0  0  0  0  0  0  0
    8.5606   42.2921  132.9957 C   0  0  0  0  0  0  0  0  0  0  0  0
    9.9271   42.7138  132.8057 C   0  0  0  0  0  0  0  0  0  0  0  0
   10.6023   43.6763  133.4035 N   0  0  0  0  0  0  0  0  0  0  0  0
   11.8719   44.0184  133.1977 C   0  0  0  0  0  0  0  0  0  0  0  0
   12.5959   43.3149  132.2662 C   0  0  0  0  0  0  0  0  0  0  0  0
   11.9514   42.2985  131.6071 C   0  0  0  0  0  0  0  0  0  0  0  0
   10.6730   42.0194  131.8735 N   0  0  0  0  0  0  0  0  0  0  0  0
    9.2798   48.8095  130.7878 C   0  0  0  0  0  0  0  0  0  0  0  0
    9.6701   49.9962  130.7663 O   0  0  0  0  0  0  0  0  0  0  0  0
   11.9720   45.7647  129.3762 C   0  0  0  0  0  0  0  0  0  0  0  0
   11.2226   46.5125  128.4933 C   0  0  0  0  0  0  0  0  0  0  0  0
   10.3376   47.4999  128.9364 C   0  0  0  0  0  0  0  0  0  0  0  0
   10.1623   47.7845  130.2728 C   0  0  0  0  0  0  0  0  0  0  0  0
   10.9375   47.0079  131.1534 C   0  0  0  0  0  0  0  0  0  0  0  0
   11.8034   46.0408  130.7146 C   0  0  0  0  0  0  0  0  0  0  0  0
   14.1944   44.6157  129.3922 O   0  0  0  0  0  0  0  0  0  0  0  0
   12.8989   44.7311  128.9217 C   0  0  0  0  0  0  0  0  0  0  0  0
   12.4947   43.9130  128.0644 O   0  0  0  0  0  0  0  0  0  0  0  0
   14.3444   44.8321  130.3885 H   0  0  0  0  0  0  0  0  0  0  0  0
 33 34  1  0  0  0
 34 35  2  0  0  0
 34 27  1  0  0  0
 27 28  2  0  0  0
 28 29  1  0  0  0
 29 30  2  0  0  0
 30 31  1  0  0  0
 31 32  2  0  0  0
 30 25  1  0  0  0
 25 26  2  0  0  0
 25  1  1  0  0  0
  1  2  1  0  0  0
  2  3  1  0  0  0
  3  4  1  0  0  0
  4  5  1  0  0  0
  5  6  1  0  0  0
  4  7  1  0  0  0
  7  8  1  0  0  0
  8  9  2  0  0  0
  8 11  1  0  0  0
 11 12  2  0  0  0
 12 13  1  0  0  0
 13 14  2  0  0  0
 14 15  1  0  0  0
 15 16  2  0  0  0
 16 17  1  0  0  0
 17 18  2  0  0  0
 18 19  1  0  0  0
 19 20  2  0  0  0
 20 21  1  0  0  0
 21 22  2  0  0  0
 22 23  1  0  0  0
 23 24  2  0  0  0
 32 27  1  0  0  0
  6  1  1  0  0  0
 18 13  1  0  0  0
 24 19  1  0  0  0
 33 36  1  0  0  0
  7 10  1  0  0  0
M  END
> <minimizedAffinity>
11.85265

> <CNNscore>
0.2151701450

> <CNNaffinity>
6.9138083458

> <CNN_VS>
1.4876451492

> <CNNaffinity_variance>
0.2578087151

$$$$
[H]OC(=O)c1c([H])c([H])c(C(=O)[C@]2([H])C([H])([H])C([H])([H])[C@]([H])(N([H])C(=O)/C([H])=C(/[H])c3nc([H])c([H])c([H])c3-c3nc([H])c([H])c([H])n3)C([H])([H])C2([H])[H])c([H])c1[H]


 36 39  0  0  0  0  0  0  0  0999 V2000
    9.8384   46.8009  134.9868 C   0  0  0  0  0  0  0  0  0  0  0  0
   10.7230   45.5999  134.9075 C   0  0  0  0  0  0  0  0  0  0  0  0
   10.7200   45.0759  133.4814 C   0  0  0  0  0  0  0  0  0  0  0  0
    9.3248   44.5404  133.2406 C   0  0  0  0  0  0  0  0  0  0  0  0
    8.4015   45.7601  133.2365 C   0  0  0  0  0  0  0  0  0  0  0  0
    8.4350   46.4045  134.5959 C   0  0  0  0  0  0  0  0  0  0  0  0
    9.1824   43.8767  131.9932 N   0  0  0  0  0  0  0  0  0  0  0  0
   10.0241   42.6954  131.7309 C   0  0  0  0  0  0  0  0  0  0  0  0
   10.7707   42.4322  132.6718 O   0  0  0  0  0  0  0  0  0  0  0  0
    8.5093   44.2036  131.2785 H   0  0  0  0  0  0  0  0  0  0  0  0
    9.7994   42.1105  130.4626 C   0  0  0  0  0  0  0  0  0  0  0  0
    9.3464   42.6712  129.3904 C   0  0  0  0  0  0  0  0  0  0  0  0
    8.9586   44.0353  129.2572 C   0  0  0  0  0  0  0  0  0  0  0  0
    7.6979   44.4892  129.1820 N   0  0  0  0  0  0  0  0  0  0  0  0
    7.3139   45.7666  129.0731 C   0  0  0  0  0  0  0  0  0  0  0  0
    8.2409   46.7847  129.0271 C   0  0  0  0  0  0  0  0  0  0  0  0
    9.5466   46.3952  129.1012 C   0  0  0  0  0  0  0  0  0  0  0  0
    9.9283   45.0410  129.2168 C   0  0  0  0  0  0  0  0  0  0  0  0
   11.3425   44.7759  129.3228 C   0  0  0  0  0  0  0  0  0  0  0  0
   12.2176   44.4844  128.3800 N   0  0  0  0  0  0  0  0  0  0  0  0
   13.5205   44.2589  128.5311 C   0  0  0  0  0  0  0  0  0  0  0  0
   14.0538   44.3279  129.7951 C   0  0  0  0  0  0  0  0  0  0  0  0
   13.1956   44.6276  130.8231 C   0  0  0  0  0  0  0  0  0  0  0  0
   11.8989   44.8403  130.5852 N   0  0  0  0  0  0  0  0  0  0  0  0
   10.3207   47.9980  134.3035 C   0  0  0  0  0  0  0  0  0  0  0  0
   11.3612   48.5640  134.7011 O   0  0  0  0  0  0  0  0  0  0  0  0
    8.3602   49.7129  130.8791 C   0  0  0  0  0  0  0  0  0  0  0  0
    7.6614   49.4513  132.0382 C   0  0  0  0  0  0  0  0  0  0  0  0
    8.2821   48.8870  133.1566 C   0  0  0  0  0  0  0  0  0  0  0  0
    9.6205   48.5612  133.1690 C   0  0  0  0  0  0  0  0  0  0  0  0
   10.3113   48.8372  131.9749 C   0  0  0  0  0  0  0  0  0  0  0  0
    9.6988   49.3900  130.8808 C   0  0  0  0  0  0  0  0  0  0  0  0
    7.0483   51.5112  129.7368 O   0  0  0  0  0  0  0  0  0  0  0  0
    7.7195   50.3022  129.7060 C   0  0  0  0  0  0  0  0  0  0  0  0
    7.7847   49.6774  128.6229 O   0  0  0  0  0  0  0  0  0  0  0  0
    7.4424   52.2422  130.3469 H   0  0  0  0  0  0  0  0  0  0  0  0
 33 34  1  0  0  0
 34 35  2  0  0  0
 34 27  1  0  0  0
 27 28  2  0  0  0
 28 29  1  0  0  0
 29 30  2  0  0  0
 30 31  1  0  0  0
 31 32  2  0  0  0
 30 25  1  0  0  0
 25 26  2  0  0  0
 25  1  1  0  0  0
  1  2  1  0  0  0
  2  3  1  0  0  0
  3  4  1  0  0  0
  4  5  1  0  0  0
  5  6  1  0  0  0
  4  7  1  0  0  0
  7  8  1  0  0  0
  8  9  2  0  0  0
  8 11  1  0  0  0
 11 12  2  0  0  0
 12 13  1  0  0  0
 13 14  2  0  0  0
 14 15  1  0  0  0
 15 16  2  0  0  0
 16 17  1  0  0  0
 17 18  2  0  0  0
 18 19  1  0  0  0
 19 20  2  0  0  0
 20 21  1  0  0  0
 21 22  2  0  0  0
 22 23  1  0  0  0
 23 24  2  0  0  0
 32 27  1  0  0  0
  6  1  1  0  0  0
 18 13  1  0  0  0
 24 19  1  0  0  0
 33 36  1  0  0  0
  7 10  1  0  0  0
M  END
> <minimizedAffinity>
-2.00544

> <CNNscore>
0.1980620474

> <CNNaffinity>
7.3848404884

> <CNN_VS>
1.4626566172

> <CNNaffinity_variance>
0.1832064688

$$$$
[H]OC(=O)c1c([H])c([H])c(C(=O)[C@]2([H])C([H])([H])C([H])([H])[C@]([H])(N([H])C(=O)/C([H])=C(/[H])c3nc([H])c([H])c([H])c3-c3nc([H])c([H])c([H])n3)C([H])([H])C2([H])[H])c([H])c1[H]


 36 39  0  0  0  0  0  0  0  0999 V2000
    7.6332   48.8305  129.9519 C   0  0  0  0  0  0  0  0  0  0  0  0
    7.0443   47.8378  130.9001 C   0  0  0  0  0  0  0  0  0  0  0  0
    7.8112   46.5310  130.7885 C   0  0  0  0  0  0  0  0  0  0  0  0
    7.4946   45.9819  129.4139 C   0  0  0  0  0  0  0  0  0  0  0  0
    8.1548   46.9369  128.4177 C   0  0  0  0  0  0  0  0  0  0  0  0
    7.5184   48.2946  128.5451 C   0  0  0  0  0  0  0  0  0  0  0  0
    8.0199   44.6815  129.1908 N   0  0  0  0  0  0  0  0  0  0  0  0
    9.4265   44.5600  128.7674 C   0  0  0  0  0  0  0  0  0  0  0  0
    9.9808   45.6523  128.6597 O   0  0  0  0  0  0  0  0  0  0  0  0
    7.4410   43.8333  129.3183 H   0  0  0  0  0  0  0  0  0  0  0  0
    9.8469   43.2227  128.5769 C   0  0  0  0  0  0  0  0  0  0  0  0
    9.6421   42.2017  129.3416 C   0  0  0  0  0  0  0  0  0  0  0  0
    8.9355   42.2086  130.5784 C   0  0  0  0  0  0  0  0  0  0  0  0
    7.8135   41.5224  130.8451 N   0  0  0  0  0  0  0  0  0  0  0  0
    7.1452   41.5035  132.0045 C   0  0  0  0  0  0  0  0  0  0  0  0
    7.5832   42.2331  133.0879 C   0  0  0  0  0  0  0  0  0  0  0  0
    8.7237   42.9554  132.8884 C   0  0  0  0  0  0  0  0  0  0  0  0
    9.4127   42.9593  131.6563 C   0  0  0  0  0  0  0  0  0  0  0  0
   10.6252   43.7390  131.5975 C   0  0  0  0  0  0  0  0  0  0  0  0
   10.8418   44.9880  131.9617 N   0  0  0  0  0  0  0  0  0  0  0  0
   11.9890   45.6596  131.8963 C   0  0  0  0  0  0  0  0  0  0  0  0
   13.0961   45.0159  131.3999 C   0  0  0  0  0  0  0  0  0  0  0  0
   12.9386   43.7120  131.0022 C   0  0  0  0  0  0  0  0  0  0  0  0
   11.7505   43.1105  131.1014 N   0  0  0  0  0  0  0  0  0  0  0  0
    8.9678   49.3207  130.2849 C   0  0  0  0  0  0  0  0  0  0  0  0
    9.9460   48.9857  129.5835 O   0  0  0  0  0  0  0  0  0  0  0  0
    9.6334   52.0116  133.5754 C   0  0  0  0  0  0  0  0  0  0  0  0
   10.0780   50.7077  133.6255 C   0  0  0  0  0  0  0  0  0  0  0  0
    9.8626   49.8189  132.5681 C   0  0  0  0  0  0  0  0  0  0  0  0
    9.1986   50.1893  131.4193 C   0  0  0  0  0  0  0  0  0  0  0  0
    8.7546   51.5240  131.3926 C   0  0  0  0  0  0  0  0  0  0  0  0
    8.9675   52.3917  132.4316 C   0  0  0  0  0  0  0  0  0  0  0  0
   11.0714   53.5571  134.9184 O   0  0  0  0  0  0  0  0  0  0  0  0
    9.8540   52.9468  134.6757 C   0  0  0  0  0  0  0  0  0  0  0  0
    8.8903   53.2042  135.4324 O   0  0  0  0  0  0  0  0  0  0  0  0
   11.6266   53.8234  134.0922 H   0  0  0  0  0  0  0  0  0  0  0  0
 33 34  1  0  0  0
 34 35  2  0  0  0
 34 27  1  0  0  0
 27 28  2  0  0  0
 28 29  1  0  0  0
 29 30  2  0  0  0
 30 31  1  0  0  0
 31 32  2  0  0  0
 30 25  1  0  0  0
 25 26  2  0  0  0
 25  1  1  0  0  0
  1  2  1  0  0  0
  2  3  1  0  0  0
  3  4  1  0  0  0
  4  5  1  0  0  0
  5  6  1  0  0  0
  4  7  1  0  0  0
  7  8  1  0  0  0
  8  9  2  0  0  0
  8 11  1  0  0  0
 11 12  2  0  0  0
 12 13  1  0  0  0
 13 14  2  0  0  0
 14 15  1  0  0  0
 15 16  2  0  0  0
 16 17  1  0  0  0
 17 18  2  0  0  0
 18 19  1  0  0  0
 19 20  2  0  0  0
 20 21  1  0  0  0
 21 22  2  0  0  0
 22 23  1  0  0  0
 23 24  2  0  0  0
 32 27  1  0  0  0
  6  1  1  0  0  0
 18 13  1  0  0  0
 24 19  1  0  0  0
 33 36  1  0  0  0
  7 10  1  0  0  0
M  END
> <minimizedAffinity>
15.21940

> <CNNscore>
0.1735863090

> <CNNaffinity>
6.9778318405

> <CNN_VS>
1.2112560272

> <CNNaffinity_variance>
0.3933749199

$$$$
[H]OC(=O)c1c([H])c([H])c(C(=O)[C@]2([H])C([H])([H])C([H])([H])[C@]([H])(N([H])C(=O)/C([H])=C(/[H])c3nc([H])c([H])c([H])c3-c3nc([H])c([H])c([H])n3)C([H])([H])C2([H])[H])c([H])c1[H]


 36 39  0  0  0  0  0  0  0  0999 V2000
    9.6327   48.9639  133.8171 C   0  0  0  0  0  0  0  0  0  0  0  0
   10.9806   48.5296  134.2923 C   0  0  0  0  0  0  0  0  0  0  0  0
   11.4514   47.3599  133.4448 C   0  0  0  0  0  0  0  0  0  0  0  0
   10.5343   46.2055  133.7875 C   0  0  0  0  0  0  0  0  0  0  0  0
    9.1572   46.5862  133.2409 C   0  0  0  0  0  0  0  0  0  0  0  0
    8.6663   47.8129  133.9611 C   0  0  0  0  0  0  0  0  0  0  0  0
   10.9223   44.9787  133.1864 N   0  0  0  0  0  0  0  0  0  0  0  0
   12.3552   44.7513  132.9261 C   0  0  0  0  0  0  0  0  0  0  0  0
   13.0534   45.6991  133.2814 O   0  0  0  0  0  0  0  0  0  0  0  0
   10.2274   44.2551  132.9329 H   0  0  0  0  0  0  0  0  0  0  0  0
   12.6304   43.4985  132.3293 C   0  0  0  0  0  0  0  0  0  0  0  0
   11.8050   42.5435  132.0539 C   0  0  0  0  0  0  0  0  0  0  0  0
   10.4034   42.5472  132.3078 C   0  0  0  0  0  0  0  0  0  0  0  0
    9.8068   42.1004  133.4237 N   0  0  0  0  0  0  0  0  0  0  0  0
    8.4946   42.1105  133.6868 C   0  0  0  0  0  0  0  0  0  0  0  0
    7.5920   42.6131  132.7754 C   0  0  0  0  0  0  0  0  0  0  0  0
    8.1305   43.0883  131.6151 C   0  0  0  0  0  0  0  0  0  0  0  0
    9.5188   43.0684  131.3596 C   0  0  0  0  0  0  0  0  0  0  0  0
    9.9526   43.6372  130.1068 C   0  0  0  0  0  0  0  0  0  0  0  0
   10.5991   44.7626  129.8718 N   0  0  0  0  0  0  0  0  0  0  0  0
   10.9875   45.2379  128.6909 C   0  0  0  0  0  0  0  0  0  0  0  0
   10.7028   44.5043  127.5651 C   0  0  0  0  0  0  0  0  0  0  0  0
   10.0307   43.3208  127.7402 C   0  0  0  0  0  0  0  0  0  0  0  0
    9.6764   42.9154  128.9622 N   0  0  0  0  0  0  0  0  0  0  0  0
    9.5913   49.6027  132.5046 C   0  0  0  0  0  0  0  0  0  0  0  0
   10.3057   50.6022  132.2769 O   0  0  0  0  0  0  0  0  0  0  0  0
    6.9398   48.2197  129.4113 C   0  0  0  0  0  0  0  0  0  0  0  0
    8.1044   47.5416  129.7016 C   0  0  0  0  0  0  0  0  0  0  0  0
    8.9802   47.9825  130.6981 C   0  0  0  0  0  0  0  0  0  0  0  0
    8.7343   49.1128  131.4462 C   0  0  0  0  0  0  0  0  0  0  0  0
    7.5405   49.7872  131.1308 C   0  0  0  0  0  0  0  0  0  0  0  0
    6.6851   49.3517  130.1529 C   0  0  0  0  0  0  0  0  0  0  0  0
    4.9559   46.9169  128.6197 O   0  0  0  0  0  0  0  0  0  0  0  0
    6.0193   47.7661  128.3717 C   0  0  0  0  0  0  0  0  0  0  0  0
    6.2074   48.1692  127.2014 O   0  0  0  0  0  0  0  0  0  0  0  0
    4.4647   47.0425  129.5169 H   0  0  0  0  0  0  0  0  0  0  0  0
 33 34  1  0  0  0
 34 35  2  0  0  0
 34 27  1  0  0  0
 27 28  2  0  0  0
 28 29  1  0  0  0
 29 30  2  0  0  0
 30 31  1  0  0  0
 31 32  2  0  0  0
 30 25  1  0  0  0
 25 26  2  0  0  0
 25  1  1  0  0  0
  1  2  1  0  0  0
  2  3  1  0  0  0
  3  4  1  0  0  0
  4  5  1  0  0  0
  5  6  1  0  0  0
  4  7  1  0  0  0
  7  8  1  0  0  0
  8  9  2  0  0  0
  8 11  1  0  0  0
 11 12  2  0  0  0
 12 13  1  0  0  0
 13 14  2  0  0  0
 14 15  1  0  0  0
 15 16  2  0  0  0
 16 17  1  0  0  0
 17 18  2  0  0  0
 18 19  1  0  0  0
 19 20  2  0  0  0
 20 21  1  0  0  0
 21 22  2  0  0  0
 22 23  1  0  0  0
 23 24  2  0  0  0
 32 27  1  0  0  0
  6  1  1  0  0  0
 18 13  1  0  0  0
 24 19  1  0  0  0
 33 36  1  0  0  0
  7 10  1  0  0  0
M  END
> <minimizedAffinity>
-2.17635

> <CNNscore>
0.1604568511

> <CNNaffinity>
7.3324594498

> <CNN_VS>
1.1765433550

> <CNNaffinity_variance>
0.1256618947

$$$$
[H]OC(=O)c1c([H])c([H])c(C(=O)[C@]2([H])C([H])([H])C([H])([H])[C@]([H])(N([H])C(=O)/C([H])=C(/[H])c3nc([H])c([H])c([H])c3-c3nc([H])c([H])c([H])n3)C([H])([H])C2([H])[H])c([H])c1[H]


 36 39  0  0  0  0  0  0  0  0999 V2000
    9.7749   45.1840  135.2077 C   0  0  0  0  0  0  0  0  0  0  0  0
    8.4234   44.6917  134.8046 C   0  0  0  0  0  0  0  0  0  0  0  0
    8.2982   44.7707  133.2926 C   0  0  0  0  0  0  0  0  0  0  0  0
    8.2846   46.2463  132.9553 C   0  0  0  0  0  0  0  0  0  0  0  0
    9.6857   46.7653  133.2834 C   0  0  0  0  0  0  0  0  0  0  0  0
    9.9293   46.6179  134.7610 C   0  0  0  0  0  0  0  0  0  0  0  0
    8.0280   46.5094  131.5836 N   0  0  0  0  0  0  0  0  0  0  0  0
    6.6731   46.2498  131.0645 C   0  0  0  0  0  0  0  0  0  0  0  0
    5.9126   45.8204  131.9301 O   0  0  0  0  0  0  0  0  0  0  0  0
    8.7641   46.8739  130.9542 H   0  0  0  0  0  0  0  0  0  0  0  0
    6.5266   46.5488  129.6895 C   0  0  0  0  0  0  0  0  0  0  0  0
    7.3036   47.2538  128.9356 C   0  0  0  0  0  0  0  0  0  0  0  0
    8.5031   47.9047  129.3434 C   0  0  0  0  0  0  0  0  0  0  0  0
    8.5952   49.1588  129.8121 N   0  0  0  0  0  0  0  0  0  0  0  0
    9.7094   49.7813  130.2150 C   0  0  0  0  0  0  0  0  0  0  0  0
   10.9304   49.1441  130.1797 C   0  0  0  0  0  0  0  0  0  0  0  0
   10.9113   47.8613  129.7147 C   0  0  0  0  0  0  0  0  0  0  0  0
    9.7231   47.2244  129.2959 C   0  0  0  0  0  0  0  0  0  0  0  0
    9.8440   45.8539  128.8618 C   0  0  0  0  0  0  0  0  0  0  0  0
   10.2891   45.3686  127.7190 N   0  0  0  0  0  0  0  0  0  0  0  0
   10.3908   44.0877  127.3719 C   0  0  0  0  0  0  0  0  0  0  0  0
    9.9988   43.1319  128.2772 C   0  0  0  0  0  0  0  0  0  0  0  0
    9.5251   43.5707  129.4880 C   0  0  0  0  0  0  0  0  0  0  0  0
    9.4553   44.8768  129.7571 N   0  0  0  0  0  0  0  0  0  0  0  0
   10.9026   44.3317  134.8412 C   0  0  0  0  0  0  0  0  0  0  0  0
   11.3380   43.4917  135.6573 O   0  0  0  0  0  0  0  0  0  0  0  0
   12.8142   44.4958  130.9901 C   0  0  0  0  0  0  0  0  0  0  0  0
   12.8414   45.5799  131.8414 C   0  0  0  0  0  0  0  0  0  0  0  0
   12.2184   45.5451  133.0924 C   0  0  0  0  0  0  0  0  0  0  0  0
   11.5449   44.4332  133.5481 C   0  0  0  0  0  0  0  0  0  0  0  0
   11.5309   43.3409  132.6616 C   0  0  0  0  0  0  0  0  0  0  0  0
   12.1426   43.3795  131.4360 C   0  0  0  0  0  0  0  0  0  0  0  0
   12.8761   45.0772  128.5574 O   0  0  0  0  0  0  0  0  0  0  0  0
   13.4624   44.5237  129.6813 C   0  0  0  0  0  0  0  0  0  0  0  0
   14.6042   44.0204  129.5786 O   0  0  0  0  0  0  0  0  0  0  0  0
   12.3059   45.9230  128.7037 H   0  0  0  0  0  0  0  0  0  0  0  0
 33 34  1  0  0  0
 34 35  2  0  0  0
 34 27  1  0  0  0
 27 28  2  0  0  0
 28 29  1  0  0  0
 29 30  2  0  0  0
 30 31  1  0  0  0
 31 32  2  0  0  0
 30 25  1  0  0  0
 25 26  2  0  0  0
 25  1  1  0  0  0
  1  2  1  0  0  0
  2  3  1  0  0  0
  3  4  1  0  0  0
  4  5  1  0  0  0
  5  6  1  0  0  0
  4  7  1  0  0  0
  7  8  1  0  0  0
  8  9  2  0  0  0
  8 11  1  0  0  0
 11 12  2  0  0  0
 12 13  1  0  0  0
 13 14  2  0  0  0
 14 15  1  0  0  0
 15 16  2  0  0  0
 16 17  1  0  0  0
 17 18  2  0  0  0
 18 19  1  0  0  0
 19 20  2  0  0  0
 20 21  1  0  0  0
 21 22  2  0  0  0
 22 23  1  0  0  0
 23 24  2  0  0  0
 32 27  1  0  0  0
  6  1  1  0  0  0
 18 13  1  0  0  0
 24 19  1  0  0  0
 33 36  1  0  0  0
  7 10  1  0  0  0
M  END
> <minimizedAffinity>
0.74092

> <CNNscore>
0.1589663923

> <CNNaffinity>
7.1035528183

> <CNN_VS>
1.1292262077

> <CNNaffinity_variance>
0.2125374079

$$$$
[H]OC(=O)c1c([H])c([H])c(C(=O)[C@]2([H])C([H])([H])C([H])([H])[C@]([H])(N([H])C(=O)/C([H])=C(/[H])c3nc([H])c([H])c([H])c3-c3nc([H])c([H])c([H])n3)C([H])([H])C2([H])[H])c([H])c1[H]


 36 39  0  0  0  0  0  0  0  0999 V2000
    9.8902   49.3874  133.1942 C   0  0  0  0  0  0  0  0  0  0  0  0
   11.0289   48.6039  133.7605 C   0  0  0  0  0  0  0  0  0  0  0  0
   10.8844   47.1496  133.3452 C   0  0  0  0  0  0  0  0  0  0  0  0
    9.6631   46.6310  134.0737 C   0  0  0  0  0  0  0  0  0  0  0  0
    8.4664   47.3590  133.4589 C   0  0  0  0  0  0  0  0  0  0  0  0
    8.5945   48.8326  133.7354 C   0  0  0  0  0  0  0  0  0  0  0  0
    9.4595   45.2350  133.9114 N   0  0  0  0  0  0  0  0  0  0  0  0
    8.4872   44.7843  132.8993 C   0  0  0  0  0  0  0  0  0  0  0  0
    7.9593   45.7223  132.3046 O   0  0  0  0  0  0  0  0  0  0  0  0
    9.9736   44.5417  134.4823 H   0  0  0  0  0  0  0  0  0  0  0  0
    8.3649   43.3773  132.8186 C   0  0  0  0  0  0  0  0  0  0  0  0
    8.6823   42.6003  131.8364 C   0  0  0  0  0  0  0  0  0  0  0  0
    9.2313   43.0092  130.5873 C   0  0  0  0  0  0  0  0  0  0  0  0
    8.6170   42.9308  129.3967 N   0  0  0  0  0  0  0  0  0  0  0  0
    9.1097   43.3244  128.2162 C   0  0  0  0  0  0  0  0  0  0  0  0
   10.3677   43.8780  128.1214 C   0  0  0  0  0  0  0  0  0  0  0  0
   11.0509   43.9907  129.2972 C   0  0  0  0  0  0  0  0  0  0  0  0
   10.5104   43.5695  130.5314 C   0  0  0  0  0  0  0  0  0  0  0  0
   11.3286   43.7824  131.7005 C   0  0  0  0  0  0  0  0  0  0  0  0
   11.4967   43.0171  132.7615 N   0  0  0  0  0  0  0  0  0  0  0  0
   12.2766   43.2566  133.8130 C   0  0  0  0  0  0  0  0  0  0  0  0
   13.0054   44.4207  133.8349 C   0  0  0  0  0  0  0  0  0  0  0  0
   12.8759   45.2629  132.7593 C   0  0  0  0  0  0  0  0  0  0  0  0
   12.0698   44.9470  131.7426 N   0  0  0  0  0  0  0  0  0  0  0  0
    9.8918   49.5635  131.7446 C   0  0  0  0  0  0  0  0  0  0  0  0
   10.8303   50.1777  131.1941 O   0  0  0  0  0  0  0  0  0  0  0  0
    6.6320   48.1154  129.3387 C   0  0  0  0  0  0  0  0  0  0  0  0
    7.7903   47.3810  129.4783 C   0  0  0  0  0  0  0  0  0  0  0  0
    8.8614   47.8413  130.2499 C   0  0  0  0  0  0  0  0  0  0  0  0
    8.8247   49.0477  130.9139 C   0  0  0  0  0  0  0  0  0  0  0  0
    7.6329   49.7783  130.7555 C   0  0  0  0  0  0  0  0  0  0  0  0
    6.5856   49.3235  129.9978 C   0  0  0  0  0  0  0  0  0  0  0  0
    4.5788   46.7274  128.9959 O   0  0  0  0  0  0  0  0  0  0  0  0
    5.5082   47.6420  128.5344 C   0  0  0  0  0  0  0  0  0  0  0  0
    5.3861   48.0896  127.3715 O   0  0  0  0  0  0  0  0  0  0  0  0
    4.3158   46.7985  129.9897 H   0  0  0  0  0  0  0  0  0  0  0  0
 33 34  1  0  0  0
 34 35  2  0  0  0
 34 27  1  0  0  0
 27 28  2  0  0  0
 28 29  1  0  0  0
 29 30  2  0  0  0
 30 31  1  0  0  0
 31 32  2  0  0  0
 30 25  1  0  0  0
 25 26  2  0  0  0
 25  1  1  0  0  0
  1  2  1  0  0  0
  2  3  1  0  0  0
  3  4  1  0  0  0
  4  5  1  0  0  0
  5  6  1  0  0  0
  4  7  1  0  0  0
  7  8  1  0  0  0
  8  9  2  0  0  0
  8 11  1  0  0  0
 11 12  2  0  0  0
 12 13  1  0  0  0
 13 14  2  0  0  0
 14 15  1  0  0  0
 15 16  2  0  0  0
 16 17  1  0  0  0
 17 18  2  0  0  0
 18 19  1  0  0  0
 19 20  2  0  0  0
 20 21  1  0  0  0
 21 22  2  0  0  0
 22 23  1  0  0  0
 23 24  2  0  0  0
 32 27  1  0  0  0
  6  1  1  0  0  0
 18 13  1  0  0  0
 24 19  1  0  0  0
 33 36  1  0  0  0
  7 10  1  0  0  0
M  END
> <minimizedAffinity>
-4.47478

> <CNNscore>
0.1558541209

> <CNNaffinity>
7.3336853981

> <CNN_VS>
1.1429851055

> <CNNaffinity_variance>
0.1774829179

$$$$
[H]c1nc(C([H])([H])Oc2c([H])c([H])c(C(=O)N([H])C([H])([H])c3c([H])c([H])c(F)c([H])c3[H])c(Cl)c2[H])n(C([H])(C([H])([H])[H])C([H])([H])[H])c1[H]


 29 31  0  0  0  0  0  0  0  0999 V2000
    8.1164   46.5901  129.6131 C   0  0  0  0  0  0  0  0  0  0  0  0
    6.9027   46.9904  129.1034 C   0  0  0  0  0  0  0  0  0  0  0  0
    6.4939   48.3297  129.1151 C   0  0  0  0  0  0  0  0  0  0  0  0
    7.2935   49.3041  129.6397 C   0  0  0  0  0  0  0  0  0  0  0  0
    8.5138   48.9375  130.1577 C   0  0  0  0  0  0  0  0  0  0  0  0
    9.5474   50.1831  130.8324 Cl  0  0  0  0  0  0  0  0  0  0  0  0
    8.9115   47.6264  130.1450 C   0  0  0  0  0  0  0  0  0  0  0  0
    6.8059   50.6847  129.6194 C   0  0  0  0  0  0  0  0  0  0  0  0
    6.0498   51.1267  130.5324 O   0  0  0  0  0  0  0  0  0  0  0  0
    7.1744   51.5524  128.5708 N   0  0  0  0  0  0  0  0  0  0  0  0
    7.7955   51.1995  127.8134 H   0  0  0  0  0  0  0  0  0  0  0  0
    6.7383   52.9231  128.4790 C   0  0  0  0  0  0  0  0  0  0  0  0
    7.0343   53.4092  127.0991 C   0  0  0  0  0  0  0  0  0  0  0  0
    6.1859   54.2341  126.3951 C   0  0  0  0  0  0  0  0  0  0  0  0
    6.5116   54.6615  125.1025 C   0  0  0  0  0  0  0  0  0  0  0  0
    7.6862   54.2607  124.5205 C   0  0  0  0  0  0  0  0  0  0  0  0
    8.0331   54.6608  123.2592 F   0  0  0  0  0  0  0  0  0  0  0  0
    8.5391   53.4391  125.2128 C   0  0  0  0  0  0  0  0  0  0  0  0
    8.2173   53.0248  126.4727 C   0  0  0  0  0  0  0  0  0  0  0  0
    8.6190   45.3343  129.6555 O   0  0  0  0  0  0  0  0  0  0  0  0
    8.8393   44.4068  130.6483 C   0  0  0  0  0  0  0  0  0  0  0  0
   10.1224   44.8432  132.7159 N   0  0  0  0  0  0  0  0  0  0  0  0
    9.8517   45.3582  133.9486 C   0  0  0  0  0  0  0  0  0  0  0  0
    8.5438   45.6945  134.0163 C   0  0  0  0  0  0  0  0  0  0  0  0
    8.0271   45.3814  132.8229 N   0  0  0  0  0  0  0  0  0  0  0  0
    8.9594   44.8658  132.0205 C   0  0  0  0  0  0  0  0  0  0  0  0
   12.4198   45.3812  131.8949 C   0  0  0  0  0  0  0  0  0  0  0  0
   11.4283   44.4199  132.3767 C   0  0  0  0  0  0  0  0  0  0  0  0
   12.0142   43.7688  133.6451 C   0  0  0  0  0  0  0  0  0  0  0  0
 27 28  1  0  0  0
 28 29  1  0  0  0
 28 22  1  0  0  0
 22 23  1  0  0  0
 23 24  2  0  0  0
 24 25  1  0  0  0
 25 26  2  0  0  0
 26 21  1  0  0  0
 21 20  1  0  0  0
 20  1  1  0  0  0
  1  2  2  0  0  0
  2  3  1  0  0  0
  3  4  2  0  0  0
  4  5  1  0  0  0
  5  6  1  0  0  0
  5  7  2  0  0  0
  4  8  1  0  0  0
  8  9  2  0  0  0
  8 10  1  0  0  0
 10 12  1  0  0  0
 12 13  1  0  0  0
 13 14  2  0  0  0
 14 15  1  0  0  0
 15 16  2  0  0  0
 16 17  1  0  0  0
 16 18  1  0  0  0
 18 19  2  0  0  0
 26 22  1  0  0  0
  7  1  1  0  0  0
 19 13  1  0  0  0
 10 11  1  0  0  0
M  END
> <minimizedAffinity>
-2.24546

> <CNNscore>
0.5937869549

> <CNNaffinity>
7.2267012596

> <CNN_VS>
4.2911210060

> <CNNaffinity_variance>
0.2181144208

$$$$
[H]c1nc(C([H])([H])Oc2c([H])c([H])c(C(=O)N([H])C([H])([H])c3c([H])c([H])c(F)c([H])c3[H])c(Cl)c2[H])n(C([H])(C([H])([H])[H])C([H])([H])[H])c1[H]


 29 31  0  0  0  0  0  0  0  0999 V2000
    7.3577   45.9879  129.9738 C   0  0  0  0  0  0  0  0  0  0  0  0
    8.5617   45.5422  129.4791 C   0  0  0  0  0  0  0  0  0  0  0  0
    9.6058   45.1305  130.3166 C   0  0  0  0  0  0  0  0  0  0  0  0
    9.4689   45.1556  131.6748 C   0  0  0  0  0  0  0  0  0  0  0  0
    8.2774   45.5960  132.2021 C   0  0  0  0  0  0  0  0  0  0  0  0
    8.0930   45.6302  133.9456 Cl  0  0  0  0  0  0  0  0  0  0  0  0
    7.2573   45.9982  131.3805 C   0  0  0  0  0  0  0  0  0  0  0  0
   10.5992   44.7105  132.4924 C   0  0  0  0  0  0  0  0  0  0  0  0
   10.7166   43.5017  132.8468 O   0  0  0  0  0  0  0  0  0  0  0  0
   11.5847   45.6317  132.9028 N   0  0  0  0  0  0  0  0  0  0  0  0
   11.4982   46.6294  132.6180 H   0  0  0  0  0  0  0  0  0  0  0  0
   12.7264   45.2735  133.7064 C   0  0  0  0  0  0  0  0  0  0  0  0
   13.0398   46.4263  134.6013 C   0  0  0  0  0  0  0  0  0  0  0  0
   14.2758   46.6153  135.1779 C   0  0  0  0  0  0  0  0  0  0  0  0
   14.5172   47.7145  136.0104 C   0  0  0  0  0  0  0  0  0  0  0  0
   13.5192   48.6199  136.2619 C   0  0  0  0  0  0  0  0  0  0  0  0
   13.7233   49.7039  137.0709 F   0  0  0  0  0  0  0  0  0  0  0  0
   12.2839   48.4415  135.6926 C   0  0  0  0  0  0  0  0  0  0  0  0
   12.0531   47.3682  134.8817 C   0  0  0  0  0  0  0  0  0  0  0  0
    6.2810   46.4067  129.2689 O   0  0  0  0  0  0  0  0  0  0  0  0
    5.9400   47.5654  128.6089 C   0  0  0  0  0  0  0  0  0  0  0  0
    7.0150   49.2777  130.0315 N   0  0  0  0  0  0  0  0  0  0  0  0
    6.6483   50.4723  130.5759 C   0  0  0  0  0  0  0  0  0  0  0  0
    5.3696   50.7473  130.2331 C   0  0  0  0  0  0  0  0  0  0  0  0
    4.9665   49.7168  129.4817 N   0  0  0  0  0  0  0  0  0  0  0  0
    5.9411   48.8165  129.3454 C   0  0  0  0  0  0  0  0  0  0  0  0
    9.3893   49.0643  129.2845 C   0  0  0  0  0  0  0  0  0  0  0  0
    8.3153   48.7584  130.2290 C   0  0  0  0  0  0  0  0  0  0  0  0
    8.7763   49.2624  131.6109 C   0  0  0  0  0  0  0  0  0  0  0  0
 27 28  1  0  0  0
 28 29  1  0  0  0
 28 22  1  0  0  0
 22 23  1  0  0  0
 23 24  2  0  0  0
 24 25  1  0  0  0
 25 26  2  0  0  0
 26 21  1  0  0  0
 21 20  1  0  0  0
 20  1  1  0  0  0
  1  2  2  0  0  0
  2  3  1  0  0  0
  3  4  2  0  0  0
  4  5  1  0  0  0
  5  6  1  0  0  0
  5  7  2  0  0  0
  4  8  1  0  0  0
  8  9  2  0  0  0
  8 10  1  0  0  0
 10 12  1  0  0  0
 12 13  1  0  0  0
 13 14  2  0  0  0
 14 15  1  0  0  0
 15 16  2  0  0  0
 16 17  1  0  0  0
 16 18  1  0  0  0
 18 19  2  0  0  0
 26 22  1  0  0  0
  7  1  1  0  0  0
 19 13  1  0  0  0
 10 11  1  0  0  0
M  END
> <minimizedAffinity>
6.99371

> <CNNscore>
0.4983779788

> <CNNaffinity>
7.2866010666

> <CNN_VS>
3.6314814091

> <CNNaffinity_variance>
0.4574703574

$$$$
[H]c1nc(C([H])([H])Oc2c([H])c([H])c(C(=O)N([H])C([H])([H])c3c([H])c([H])c(F)c([H])c3[H])c(Cl)c2[H])n(C([H])(C([H])([H])[H])C([H])([H])[H])c1[H]


 29 31  0  0  0  0  0  0  0  0999 V2000
    7.8550   46.6788  129.9362 C   0  0  0  0  0  0  0  0  0  0  0  0
    6.6715   47.0896  129.3673 C   0  0  0  0  0  0  0  0  0  0  0  0
    6.2985   48.4383  129.3131 C   0  0  0  0  0  0  0  0  0  0  0  0
    7.1046   49.4117  129.8295 C   0  0  0  0  0  0  0  0  0  0  0  0
    8.2953   49.0347  130.4056 C   0  0  0  0  0  0  0  0  0  0  0  0
    9.3371   50.2790  131.0701 Cl  0  0  0  0  0  0  0  0  0  0  0  0
    8.6580   47.7145  130.4573 C   0  0  0  0  0  0  0  0  0  0  0  0
    6.6552   50.8024  129.7388 C   0  0  0  0  0  0  0  0  0  0  0  0
    5.8051   51.2711  130.5502 O   0  0  0  0  0  0  0  0  0  0  0  0
    7.1672   51.6500  128.7350 N   0  0  0  0  0  0  0  0  0  0  0  0
    7.8667   51.2751  128.0611 H   0  0  0  0  0  0  0  0  0  0  0  0
    6.7772   53.0289  128.5797 C   0  0  0  0  0  0  0  0  0  0  0  0
    7.0863   53.4399  127.1784 C   0  0  0  0  0  0  0  0  0  0  0  0
    8.3033   53.2064  126.5781 C   0  0  0  0  0  0  0  0  0  0  0  0
    8.5415   53.6129  125.2600 C   0  0  0  0  0  0  0  0  0  0  0  0
    7.5593   54.2518  124.5485 C   0  0  0  0  0  0  0  0  0  0  0  0
    7.7609   54.6615  123.2590 F   0  0  0  0  0  0  0  0  0  0  0  0
    6.3430   54.4895  125.1365 C   0  0  0  0  0  0  0  0  0  0  0  0
    6.1153   54.0915  126.4220 C   0  0  0  0  0  0  0  0  0  0  0  0
    8.3220   45.4132  130.0447 O   0  0  0  0  0  0  0  0  0  0  0  0
    8.7209   44.6088  131.0878 C   0  0  0  0  0  0  0  0  0  0  0  0
   11.1854   44.7354  131.2354 N   0  0  0  0  0  0  0  0  0  0  0  0
   12.0928   45.1505  132.1640 C   0  0  0  0  0  0  0  0  0  0  0  0
   11.4399   45.5874  133.2644 C   0  0  0  0  0  0  0  0  0  0  0  0
   10.1381   45.4348  132.9977 N   0  0  0  0  0  0  0  0  0  0  0  0
    9.9583   44.9221  131.7795 C   0  0  0  0  0  0  0  0  0  0  0  0
   11.0458   44.7771  128.7414 C   0  0  0  0  0  0  0  0  0  0  0  0
   11.6065   44.2384  129.9803 C   0  0  0  0  0  0  0  0  0  0  0  0
   13.1304   44.4610  129.9170 C   0  0  0  0  0  0  0  0  0  0  0  0
 27 28  1  0  0  0
 28 29  1  0  0  0
 28 22  1  0  0  0
 22 23  1  0  0  0
 23 24  2  0  0  0
 24 25  1  0  0  0
 25 26  2  0  0  0
 26 21  1  0  0  0
 21 20  1  0  0  0
 20  1  1  0  0  0
  1  2  2  0  0  0
  2  3  1  0  0  0
  3  4  2  0  0  0
  4  5  1  0  0  0
  5  6  1  0  0  0
  5  7  2  0  0  0
  4  8  1  0  0  0
  8  9  2  0  0  0
  8 10  1  0  0  0
 10 12  1  0  0  0
 12 13  1  0  0  0
 13 14  2  0  0  0
 14 15  1  0  0  0
 15 16  2  0  0  0
 16 17  1  0  0  0
 16 18  1  0  0  0
 18 19  2  0  0  0
 26 22  1  0  0  0
  7  1  1  0  0  0
 19 13  1  0  0  0
 10 11  1  0  0  0
M  END
> <minimizedAffinity>
-1.73959

> <CNNscore>
0.4710102677

> <CNNaffinity>
7.0414648056

> <CNN_VS>
3.3166022301

> <CNNaffinity_variance>
0.1518661529

$$$$
[H]c1nc(C([H])([H])Oc2c([H])c([H])c(C(=O)N([H])C([H])([H])c3c([H])c([H])c(F)c([H])c3[H])c(Cl)c2[H])n(C([H])(C([H])([H])[H])C([H])([H])[H])c1[H]


 29 31  0  0  0  0  0  0  0  0999 V2000
    9.0157   47.5243  130.6189 C   0  0  0  0  0  0  0  0  0  0  0  0
    9.4046   48.7967  130.9690 C   0  0  0  0  0  0  0  0  0  0  0  0
    8.6348   49.9243  130.6575 C   0  0  0  0  0  0  0  0  0  0  0  0
    7.4525   49.8042  129.9853 C   0  0  0  0  0  0  0  0  0  0  0  0
    7.0346   48.5456  129.6205 C   0  0  0  0  0  0  0  0  0  0  0  0
    5.5166   48.3826  128.7578 Cl  0  0  0  0  0  0  0  0  0  0  0  0
    7.7897   47.4440  129.9265 C   0  0  0  0  0  0  0  0  0  0  0  0
    6.6963   51.0235  129.6924 C   0  0  0  0  0  0  0  0  0  0  0  0
    5.6619   51.3286  130.3539 O   0  0  0  0  0  0  0  0  0  0  0  0
    7.1126   51.8855  128.6571 N   0  0  0  0  0  0  0  0  0  0  0  0
    7.9619   51.6443  128.1053 H   0  0  0  0  0  0  0  0  0  0  0  0
    6.4247   53.1030  128.3076 C   0  0  0  0  0  0  0  0  0  0  0  0
    6.9107   53.5374  126.9648 C   0  0  0  0  0  0  0  0  0  0  0  0
    6.1450   54.2778  126.0922 C   0  0  0  0  0  0  0  0  0  0  0  0
    6.6492   54.6597  124.8434 C   0  0  0  0  0  0  0  0  0  0  0  0
    7.9187   54.2980  124.4739 C   0  0  0  0  0  0  0  0  0  0  0  0
    8.4403   54.6552  123.2607 F   0  0  0  0  0  0  0  0  0  0  0  0
    8.6905   53.5604  125.3354 C   0  0  0  0  0  0  0  0  0  0  0  0
    8.1946   53.1903  126.5518 C   0  0  0  0  0  0  0  0  0  0  0  0
    9.6696   46.3653  130.8652 O   0  0  0  0  0  0  0  0  0  0  0  0
   10.9461   45.9012  130.6422 C   0  0  0  0  0  0  0  0  0  0  0  0
   10.9697   43.4776  131.1289 N   0  0  0  0  0  0  0  0  0  0  0  0
   11.6260   42.6575  131.9976 C   0  0  0  0  0  0  0  0  0  0  0  0
   12.4547   43.3949  132.7707 C   0  0  0  0  0  0  0  0  0  0  0  0
   12.2966   44.6602  132.3667 N   0  0  0  0  0  0  0  0  0  0  0  0
   11.4056   44.7365  131.3771 C   0  0  0  0  0  0  0  0  0  0  0  0
    8.6087   43.1664  130.3739 C   0  0  0  0  0  0  0  0  0  0  0  0
   10.0449   42.9553  130.1952 C   0  0  0  0  0  0  0  0  0  0  0  0
   10.4210   43.5625  128.8292 C   0  0  0  0  0  0  0  0  0  0  0  0
 27 28  1  0  0  0
 28 29  1  0  0  0
 28 22  1  0  0  0
 22 23  1  0  0  0
 23 24  2  0  0  0
 24 25  1  0  0  0
 25 26  2  0  0  0
 26 21  1  0  0  0
 21 20  1  0  0  0
 20  1  1  0  0  0
  1  2  2  0  0  0
  2  3  1  0  0  0
  3  4  2  0  0  0
  4  5  1  0  0  0
  5  6  1  0  0  0
  5  7  2  0  0  0
  4  8  1  0  0  0
  8  9  2  0  0  0
  8 10  1  0  0  0
 10 12  1  0  0  0
 12 13  1  0  0  0
 13 14  2  0  0  0
 14 15  1  0  0  0
 15 16  2  0  0  0
 16 17  1  0  0  0
 16 18  1  0  0  0
 18 19  2  0  0  0
 26 22  1  0  0  0
  7  1  1  0  0  0
 19 13  1  0  0  0
 10 11  1  0  0  0
M  END
> <minimizedAffinity>
-1.24730

> <CNNscore>
0.4574680030

> <CNNaffinity>
6.9998884201

> <CNN_VS>
3.2022249699

> <CNNaffinity_variance>
0.1471351385

$$$$
[H]c1nc(C([H])([H])Oc2c([H])c([H])c(C(=O)N([H])C([H])([H])c3c([H])c([H])c(F)c([H])c3[H])c(Cl)c2[H])n(C([H])(C([H])([H])[H])C([H])([H])[H])c1[H]


 29 31  0  0  0  0  0  0  0  0999 V2000
    9.2013   49.6397  131.8846 C   0  0  0  0  0  0  0  0  0  0  0  0
   10.3581   49.3472  132.5694 C   0  0  0  0  0  0  0  0  0  0  0  0
   10.6413   48.0589  133.0395 C   0  0  0  0  0  0  0  0  0  0  0  0
    9.7693   47.0285  132.8344 C   0  0  0  0  0  0  0  0  0  0  0  0
    8.6029   47.2872  132.1530 C   0  0  0  0  0  0  0  0  0  0  0  0
    7.4780   45.9690  131.8845 Cl  0  0  0  0  0  0  0  0  0  0  0  0
    8.3282   48.5486  131.6941 C   0  0  0  0  0  0  0  0  0  0  0  0
   10.1271   45.7060  133.3513 C   0  0  0  0  0  0  0  0  0  0  0  0
   10.0415   45.4387  134.5849 O   0  0  0  0  0  0  0  0  0  0  0  0
   10.5783   44.6990  132.4734 N   0  0  0  0  0  0  0  0  0  0  0  0
   10.6537   44.9077  131.4562 H   0  0  0  0  0  0  0  0  0  0  0  0
   10.9484   43.3736  132.9024 C   0  0  0  0  0  0  0  0  0  0  0  0
    9.6980   42.6360  133.2496 C   0  0  0  0  0  0  0  0  0  0  0  0
    9.6035   41.7828  134.3262 C   0  0  0  0  0  0  0  0  0  0  0  0
    8.4060   41.1149  134.6078 C   0  0  0  0  0  0  0  0  0  0  0  0
    7.3079   41.3045  133.8096 C   0  0  0  0  0  0  0  0  0  0  0  0
    6.1236   40.6665  134.0580 F   0  0  0  0  0  0  0  0  0  0  0  0
    7.3907   42.1523  132.7343 C   0  0  0  0  0  0  0  0  0  0  0  0
    8.5604   42.8013  132.4635 C   0  0  0  0  0  0  0  0  0  0  0  0
    8.8207   50.8375  131.3827 O   0  0  0  0  0  0  0  0  0  0  0  0
    8.0068   51.2467  130.3509 C   0  0  0  0  0  0  0  0  0  0  0  0
    6.8152   49.4044  129.2117 N   0  0  0  0  0  0  0  0  0  0  0  0
    5.5377   48.9299  129.1857 C   0  0  0  0  0  0  0  0  0  0  0  0
    4.7615   49.6886  129.9920 C   0  0  0  0  0  0  0  0  0  0  0  0
    5.5731   50.6208  130.5035 N   0  0  0  0  0  0  0  0  0  0  0  0
    6.8176   50.4709  130.0479 C   0  0  0  0  0  0  0  0  0  0  0  0
    8.5586   47.6279  128.9968 C   0  0  0  0  0  0  0  0  0  0  0  0
    7.8369   48.7806  128.4587 C   0  0  0  0  0  0  0  0  0  0  0  0
    7.1836   48.3247  127.1391 C   0  0  0  0  0  0  0  0  0  0  0  0
 27 28  1  0  0  0
 28 29  1  0  0  0
 28 22  1  0  0  0
 22 23  1  0  0  0
 23 24  2  0  0  0
 24 25  1  0  0  0
 25 26  2  0  0  0
 26 21  1  0  0  0
 21 20  1  0  0  0
 20  1  1  0  0  0
  1  2  2  0  0  0
  2  3  1  0  0  0
  3  4  2  0  0  0
  4  5  1  0  0  0
  5  6  1  0  0  0
  5  7  2  0  0  0
  4  8  1  0  0  0
  8  9  2  0  0  0
  8 10  1  0  0  0
 10 12  1  0  0  0
 12 13  1  0  0  0
 13 14  2  0  0  0
 14 15  1  0  0  0
 15 16  2  0  0  0
 16 17  1  0  0  0
 16 18  1  0  0  0
 18 19  2  0  0  0
 26 22  1  0  0  0
  7  1  1  0  0  0
 19 13  1  0  0  0
 10 11  1  0  0  0
M  END
> <minimizedAffinity>
6.12932

> <CNNscore>
0.4333846867

> <CNNaffinity>
7.2840003967

> <CNN_VS>
3.1567742825

> <CNNaffinity_variance>
1.1089851856

$$$$
[H]c1nc(C([H])([H])Oc2c([H])c([H])c(C(=O)N([H])C([H])([H])c3c([H])c([H])c(F)c([H])c3[H])c(Cl)c2[H])n(C([H])(C([H])([H])[H])C([H])([H])[H])c1[H]


 29 31  0  0  0  0  0  0  0  0999 V2000
    8.8694   50.1260  130.8894 C   0  0  0  0  0  0  0  0  0  0  0  0
    9.2063   50.1191  132.2234 C   0  0  0  0  0  0  0  0  0  0  0  0
    9.9225   49.0664  132.8064 C   0  0  0  0  0  0  0  0  0  0  0  0
   10.3199   47.9912  132.0649 C   0  0  0  0  0  0  0  0  0  0  0  0
    9.9991   47.9668  130.7276 C   0  0  0  0  0  0  0  0  0  0  0  0
   10.5068   46.5898  129.7678 Cl  0  0  0  0  0  0  0  0  0  0  0  0
    9.2983   48.9980  130.1595 C   0  0  0  0  0  0  0  0  0  0  0  0
   11.0665   46.9255  132.7365 C   0  0  0  0  0  0  0  0  0  0  0  0
   10.8722   46.6577  133.9576 O   0  0  0  0  0  0  0  0  0  0  0  0
   12.0245   46.1734  132.0258 N   0  0  0  0  0  0  0  0  0  0  0  0
   12.1937   46.3854  131.0207 H   0  0  0  0  0  0  0  0  0  0  0  0
   12.7991   45.1092  132.6133 C   0  0  0  0  0  0  0  0  0  0  0  0
   11.8569   44.0274  133.0258 C   0  0  0  0  0  0  0  0  0  0  0  0
   11.2828   43.1504  132.1330 C   0  0  0  0  0  0  0  0  0  0  0  0
   10.4048   42.1528  132.5728 C   0  0  0  0  0  0  0  0  0  0  0  0
   10.1055   42.0380  133.9055 C   0  0  0  0  0  0  0  0  0  0  0  0
    9.2513   41.0742  134.3669 F   0  0  0  0  0  0  0  0  0  0  0  0
   10.6718   42.9063  134.8040 C   0  0  0  0  0  0  0  0  0  0  0  0
   11.5272   43.8774  134.3705 C   0  0  0  0  0  0  0  0  0  0  0  0
    8.1864   51.0812  130.2166 O   0  0  0  0  0  0  0  0  0  0  0  0
    7.2193   51.0792  129.2372 C   0  0  0  0  0  0  0  0  0  0  0  0
    6.1633   48.8442  129.2014 N   0  0  0  0  0  0  0  0  0  0  0  0
    4.9151   48.3449  129.4264 C   0  0  0  0  0  0  0  0  0  0  0  0
    4.0762   49.3588  129.7367 C   0  0  0  0  0  0  0  0  0  0  0  0
    4.8205   50.4695  129.6981 N   0  0  0  0  0  0  0  0  0  0  0  0
    6.0836   50.1856  129.3771 C   0  0  0  0  0  0  0  0  0  0  0  0
    7.1610   46.5545  129.1449 C   0  0  0  0  0  0  0  0  0  0  0  0
    7.2383   47.9884  128.8671 C   0  0  0  0  0  0  0  0  0  0  0  0
    7.4547   48.1401  127.3485 C   0  0  0  0  0  0  0  0  0  0  0  0
 27 28  1  0  0  0
 28 29  1  0  0  0
 28 22  1  0  0  0
 22 23  1  0  0  0
 23 24  2  0  0  0
 24 25  1  0  0  0
 25 26  2  0  0  0
 26 21  1  0  0  0
 21 20  1  0  0  0
 20  1  1  0  0  0
  1  2  2  0  0  0
  2  3  1  0  0  0
  3  4  2  0  0  0
  4  5  1  0  0  0
  5  6  1  0  0  0
  5  7  2  0  0  0
  4  8  1  0  0  0
  8  9  2  0  0  0
  8 10  1  0  0  0
 10 12  1  0  0  0
 12 13  1  0  0  0
 13 14  2  0  0  0
 14 15  1  0  0  0
 15 16  2  0  0  0
 16 17  1  0  0  0
 16 18  1  0  0  0
 18 19  2  0  0  0
 26 22  1  0  0  0
  7  1  1  0  0  0
 19 13  1  0  0  0
 10 11  1  0  0  0
M  END
> <minimizedAffinity>
2.68408

> <CNNscore>
0.4066575766

> <CNNaffinity>
7.3352251053

> <CNN_VS>
2.9829249382

> <CNNaffinity_variance>
0.9702817798

$$$$
[H]c1nc(C([H])([H])Oc2c([H])c([H])c(C(=O)N([H])C([H])([H])c3c([H])c([H])c(F)c([H])c3[H])c(Cl)c2[H])n(C([H])(C([H])([H])[H])C([H])([H])[H])c1[H]


 29 31  0  0  0  0  0  0  0  0999 V2000
    6.5447   46.8895  129.2117 C   0  0  0  0  0  0  0  0  0  0  0  0
    7.4620   46.2887  128.3807 C   0  0  0  0  0  0  0  0  0  0  0  0
    8.4073   45.3700  128.8534 C   0  0  0  0  0  0  0  0  0  0  0  0
    8.4570   45.0298  130.1748 C   0  0  0  0  0  0  0  0  0  0  0  0
    7.5537   45.6127  131.0327 C   0  0  0  0  0  0  0  0  0  0  0  0
    7.6102   45.1803  132.7312 Cl  0  0  0  0  0  0  0  0  0  0  0  0
    6.6298   46.5112  130.5677 C   0  0  0  0  0  0  0  0  0  0  0  0
    9.4694   44.0621  130.6024 C   0  0  0  0  0  0  0  0  0  0  0  0
    9.1837   42.8396  130.7584 O   0  0  0  0  0  0  0  0  0  0  0  0
   10.7925   44.4819  130.8505 N   0  0  0  0  0  0  0  0  0  0  0  0
   11.0392   45.4857  130.7263 H   0  0  0  0  0  0  0  0  0  0  0  0
   11.8457   43.5928  131.2726 C   0  0  0  0  0  0  0  0  0  0  0  0
   11.8345   43.5410  132.7643 C   0  0  0  0  0  0  0  0  0  0  0  0
   12.8947   43.9567  133.5383 C   0  0  0  0  0  0  0  0  0  0  0  0
   12.8326   43.8868  134.9350 C   0  0  0  0  0  0  0  0  0  0  0  0
   11.7085   43.4006  135.5506 C   0  0  0  0  0  0  0  0  0  0  0  0
   11.6169   43.3193  136.9131 F   0  0  0  0  0  0  0  0  0  0  0  0
   10.6462   42.9838  134.7893 C   0  0  0  0  0  0  0  0  0  0  0  0
   10.7112   43.0537  133.4279 C   0  0  0  0  0  0  0  0  0  0  0  0
    5.5878   47.7847  128.8731 O   0  0  0  0  0  0  0  0  0  0  0  0
    5.1755   49.0021  129.3654 C   0  0  0  0  0  0  0  0  0  0  0  0
    7.3362   50.1176  129.8113 N   0  0  0  0  0  0  0  0  0  0  0  0
    7.8871   51.3342  129.5387 C   0  0  0  0  0  0  0  0  0  0  0  0
    6.9933   52.0890  128.8608 C   0  0  0  0  0  0  0  0  0  0  0  0
    5.9033   51.3256  128.7255 N   0  0  0  0  0  0  0  0  0  0  0  0
    6.0849   50.1314  129.2909 C   0  0  0  0  0  0  0  0  0  0  0  0
    9.4015   48.7327  130.0519 C   0  0  0  0  0  0  0  0  0  0  0  0
    8.0688   49.1281  130.5069 C   0  0  0  0  0  0  0  0  0  0  0  0
    8.2222   49.6408  131.9524 C   0  0  0  0  0  0  0  0  0  0  0  0
 27 28  1  0  0  0
 28 29  1  0  0  0
 28 22  1  0  0  0
 22 23  1  0  0  0
 23 24  2  0  0  0
 24 25  1  0  0  0
 25 26  2  0  0  0
 26 21  1  0  0  0
 21 20  1  0  0  0
 20  1  1  0  0  0
  1  2  2  0  0  0
  2  3  1  0  0  0
  3  4  2  0  0  0
  4  5  1  0  0  0
  5  6  1  0  0  0
  5  7  2  0  0  0
  4  8  1  0  0  0
  8  9  2  0  0  0
  8 10  1  0  0  0
 10 12  1  0  0  0
 12 13  1  0  0  0
 13 14  2  0  0  0
 14 15  1  0  0  0
 15 16  2  0  0  0
 16 17  1  0  0  0
 16 18  1  0  0  0
 18 19  2  0  0  0
 26 22  1  0  0  0
  7  1  1  0  0  0
 19 13  1  0  0  0
 10 11  1  0  0  0
M  END
> <minimizedAffinity>
3.03670

> <CNNscore>
0.3966219723

> <CNNaffinity>
7.3813691139

> <CNN_VS>
2.9276132584

> <CNNaffinity_variance>
0.9325203896

$$$$
[H]c1nc(C([H])([H])Oc2c([H])c([H])c(C(=O)N([H])C([H])([H])c3c([H])c([H])c(F)c([H])c3[H])c(Cl)c2[H])n(C([H])(C([H])([H])[H])C([H])([H])[H])c1[H]


 29 31  0  0  0  0  0  0  0  0999 V2000
    9.1847   46.7647  129.5955 C   0  0  0  0  0  0  0  0  0  0  0  0
    9.6696   47.9268  130.1499 C   0  0  0  0  0  0  0  0  0  0  0  0
    8.9564   49.1310  130.1008 C   0  0  0  0  0  0  0  0  0  0  0  0
    7.7360   49.2007  129.4929 C   0  0  0  0  0  0  0  0  0  0  0  0
    7.2223   48.0564  128.9283 C   0  0  0  0  0  0  0  0  0  0  0  0
    5.6548   48.1372  128.1465 Cl  0  0  0  0  0  0  0  0  0  0  0  0
    7.9220   46.8795  128.9777 C   0  0  0  0  0  0  0  0  0  0  0  0
    7.0430   50.4906  129.4780 C   0  0  0  0  0  0  0  0  0  0  0  0
    6.0552   50.7133  130.2364 O   0  0  0  0  0  0  0  0  0  0  0  0
    7.4696   51.5155  128.6086 N   0  0  0  0  0  0  0  0  0  0  0  0
    8.2809   51.3435  127.9792 H   0  0  0  0  0  0  0  0  0  0  0  0
    6.8425   52.8113  128.5346 C   0  0  0  0  0  0  0  0  0  0  0  0
    7.0169   53.3287  127.1454 C   0  0  0  0  0  0  0  0  0  0  0  0
    6.1341   54.2041  126.5535 C   0  0  0  0  0  0  0  0  0  0  0  0
    6.3445   54.6592  125.2465 C   0  0  0  0  0  0  0  0  0  0  0  0
    7.4386   54.2353  124.5378 C   0  0  0  0  0  0  0  0  0  0  0  0
    7.6722   54.6614  123.2590 F   0  0  0  0  0  0  0  0  0  0  0  0
    8.3248   53.3633  125.1176 C   0  0  0  0  0  0  0  0  0  0  0  0
    8.1155   52.9222  126.3921 C   0  0  0  0  0  0  0  0  0  0  0  0
    9.7770   45.5480  129.5820 O   0  0  0  0  0  0  0  0  0  0  0  0
   10.9137   45.0121  130.1435 C   0  0  0  0  0  0  0  0  0  0  0  0
   10.1967   44.4083  132.4311 N   0  0  0  0  0  0  0  0  0  0  0  0
   10.2370   43.2898  133.2090 C   0  0  0  0  0  0  0  0  0  0  0  0
   10.8306   42.2876  132.5223 C   0  0  0  0  0  0  0  0  0  0  0  0
   11.1480   42.8040  131.3299 N   0  0  0  0  0  0  0  0  0  0  0  0
   10.7761   44.0824  131.2501 C   0  0  0  0  0  0  0  0  0  0  0  0
    8.5998   45.5681  133.9629 C   0  0  0  0  0  0  0  0  0  0  0  0
    9.6136   45.6046  132.9093 C   0  0  0  0  0  0  0  0  0  0  0  0
   10.7753   46.4712  133.4343 C   0  0  0  0  0  0  0  0  0  0  0  0
 27 28  1  0  0  0
 28 29  1  0  0  0
 28 22  1  0  0  0
 22 23  1  0  0  0
 23 24  2  0  0  0
 24 25  1  0  0  0
 25 26  2  0  0  0
 26 21  1  0  0  0
 21 20  1  0  0  0
 20  1  1  0  0  0
  1  2  2  0  0  0
  2  3  1  0  0  0
  3  4  2  0  0  0
  4  5  1  0  0  0
  5  6  1  0  0  0
  5  7  2  0  0  0
  4  8  1  0  0  0
  8  9  2  0  0  0
  8 10  1  0  0  0
 10 12  1  0  0  0
 12 13  1  0  0  0
 13 14  2  0  0  0
 14 15  1  0  0  0
 15 16  2  0  0  0
 16 17  1  0  0  0
 16 18  1  0  0  0
 18 19  2  0  0  0
 26 22  1  0  0  0
  7  1  1  0  0  0
 19 13  1  0  0  0
 10 11  1  0  0  0
M  END
> <minimizedAffinity>
-1.73979

> <CNNscore>
0.3906685114

> <CNNaffinity>
6.8669672012

> <CNN_VS>
2.6827077866

> <CNNaffinity_variance>
0.0710893869

$$$$
[H]c1nc(C([H])([H])Oc2c([H])c([H])c(C(=O)N([H])C([H])([H])c3c([H])c([H])c(F)c([H])c3[H])c(Cl)c2[H])n(C([H])(C([H])([H])[H])C([H])([H])[H])c1[H]


 29 31  0  0  0  0  0  0  0  0999 V2000
    8.8363   47.4158  128.1961 C   0  0  0  0  0  0  0  0  0  0  0  0
    9.2705   47.8012  129.4434 C   0  0  0  0  0  0  0  0  0  0  0  0
   10.0959   46.9882  130.2301 C   0  0  0  0  0  0  0  0  0  0  0  0
   10.5076   45.7650  129.7850 C   0  0  0  0  0  0  0  0  0  0  0  0
   10.0912   45.3493  128.5418 C   0  0  0  0  0  0  0  0  0  0  0  0
   10.6166   43.7799  127.9622 Cl  0  0  0  0  0  0  0  0  0  0  0  0
    9.2837   46.1466  127.7740 C   0  0  0  0  0  0  0  0  0  0  0  0
   11.3707   44.9659  130.6572 C   0  0  0  0  0  0  0  0  0  0  0  0
   12.2817   45.5046  131.3504 O   0  0  0  0  0  0  0  0  0  0  0  0
   11.1990   43.5687  130.7388 N   0  0  0  0  0  0  0  0  0  0  0  0
   10.4531   43.1142  130.1723 H   0  0  0  0  0  0  0  0  0  0  0  0
   12.0052   42.7132  131.5729 C   0  0  0  0  0  0  0  0  0  0  0  0
   11.7627   43.0953  132.9953 C   0  0  0  0  0  0  0  0  0  0  0  0
   12.7550   43.5641  133.8268 C   0  0  0  0  0  0  0  0  0  0  0  0
   12.4738   43.9088  135.1541 C   0  0  0  0  0  0  0  0  0  0  0  0
   11.1995   43.7824  135.6429 C   0  0  0  0  0  0  0  0  0  0  0  0
   10.8925   44.1105  136.9350 F   0  0  0  0  0  0  0  0  0  0  0  0
   10.2030   43.3164  134.8233 C   0  0  0  0  0  0  0  0  0  0  0  0
   10.4818   42.9815  133.5300 C   0  0  0  0  0  0  0  0  0  0  0  0
    8.0438   48.1113  127.3477 O   0  0  0  0  0  0  0  0  0  0  0  0
    7.0558   49.0583  127.4939 C   0  0  0  0  0  0  0  0  0  0  0  0
    6.1561   49.0196  129.7962 N   0  0  0  0  0  0  0  0  0  0  0  0
    6.1670   49.8612  130.8683 C   0  0  0  0  0  0  0  0  0  0  0  0
    6.8424   50.9876  130.5468 C   0  0  0  0  0  0  0  0  0  0  0  0
    7.2381   50.8235  129.2797 N   0  0  0  0  0  0  0  0  0  0  0  0
    6.8362   49.6440  128.8041 C   0  0  0  0  0  0  0  0  0  0  0  0
    5.0629   47.0850  128.6545 C   0  0  0  0  0  0  0  0  0  0  0  0
    5.5205   47.7585  129.8695 C   0  0  0  0  0  0  0  0  0  0  0  0
    6.5214   46.8099  130.5583 C   0  0  0  0  0  0  0  0  0  0  0  0
 27 28  1  0  0  0
 28 29  1  0  0  0
 28 22  1  0  0  0
 22 23  1  0  0  0
 23 24  2  0  0  0
 24 25  1  0  0  0
 25 26  2  0  0  0
 26 21  1  0  0  0
 21 20  1  0  0  0
 20  1  1  0  0  0
  1  2  2  0  0  0
  2  3  1  0  0  0
  3  4  2  0  0  0
  4  5  1  0  0  0
  5  6  1  0  0  0
  5  7  2  0  0  0
  4  8  1  0  0  0
  8  9  2  0  0  0
  8 10  1  0  0  0
 10 12  1  0  0  0
 12 13  1  0  0  0
 13 14  2  0  0  0
 14 15  1  0  0  0
 15 16  2  0  0  0
 16 17  1  0  0  0
 16 18  1  0  0  0
 18 19  2  0  0  0
 26 22  1  0  0  0
  7  1  1  0  0  0
 19 13  1  0  0  0
 10 11  1  0  0  0
M  END
> <minimizedAffinity>
5.55401

> <CNNscore>
0.3881608248

> <CNNaffinity>
7.1527228355

> <CNN_VS>
2.7764067650

> <CNNaffinity_variance>
1.1081396341

$$$$
[H]c1c([H])c(C([H])([H])[H])c(N([H])C(=O)N([H])S(=O)(=O)c2c([H])c([H])c(C(=O)N3C([H])([H])C([H])([H])N(C([H])([H])[H])C([H])([H])C3([H])[H])c([H])c2[H])c([H])c1OC(F)(F)F


 36 38  0  0  0  0  0  0  0  0999 V2000
    6.1865   48.8988  129.1502 S   0  0  0  0  0  0  0  0  0  0  0  0
    6.2623   48.6000  127.6494 O   0  0  0  0  0  0  0  0  0  0  0  0
    6.2684   50.3822  129.3279 O   0  0  0  0  0  0  0  0  0  0  0  0
    9.6304   46.8456  131.3147 C   0  0  0  0  0  0  0  0  0  0  0  0
    8.3692   46.3276  131.3695 C   0  0  0  0  0  0  0  0  0  0  0  0
    7.3146   46.9436  130.6801 C   0  0  0  0  0  0  0  0  0  0  0  0
    7.4977   48.0720  129.9354 C   0  0  0  0  0  0  0  0  0  0  0  0
    8.7623   48.6083  129.8685 C   0  0  0  0  0  0  0  0  0  0  0  0
    9.7818   48.0173  130.5315 C   0  0  0  0  0  0  0  0  0  0  0  0
   12.1296   43.2179  136.1331 C   0  0  0  0  0  0  0  0  0  0  0  0
   11.4134   43.6870  134.9337 N   0  0  0  0  0  0  0  0  0  0  0  0
   10.4900   44.6948  135.3004 C   0  0  0  0  0  0  0  0  0  0  0  0
   10.0184   45.6533  134.2447 C   0  0  0  0  0  0  0  0  0  0  0  0
   10.9812   45.8335  133.2294 N   0  0  0  0  0  0  0  0  0  0  0  0
   12.3840   45.4858  133.6534 C   0  0  0  0  0  0  0  0  0  0  0  0
   12.3317   44.0053  133.8932 C   0  0  0  0  0  0  0  0  0  0  0  0
   10.8189   46.3187  131.9413 C   0  0  0  0  0  0  0  0  0  0  0  0
   11.9110   46.2793  131.2031 O   0  0  0  0  0  0  0  0  0  0  0  0
    4.6656   48.3091  129.6558 N   0  0  0  0  0  0  0  0  0  0  0  0
    4.4550   46.8705  129.7071 C   0  0  0  0  0  0  0  0  0  0  0  0
    5.5088   46.2251  129.3563 O   0  0  0  0  0  0  0  0  0  0  0  0
    3.2955   46.2823  130.0765 N   0  0  0  0  0  0  0  0  0  0  0  0
    3.9116   48.9325  129.9164 H   0  0  0  0  0  0  0  0  0  0  0  0
    3.9362   45.0714  130.1416 H   0  0  0  0  0  0  0  0  0  0  0  0
    2.1309   45.6896  130.4474 C   0  0  0  0  0  0  0  0  0  0  0  0
    1.7666   45.1664  131.6883 C   0  0  0  0  0  0  0  0  0  0  0  0
    0.5939   44.4920  131.9196 C   0  0  0  0  0  0  0  0  0  0  0  0
   -0.2999   44.2941  130.9094 C   0  0  0  0  0  0  0  0  0  0  0  0
   -0.0009   44.7855  129.6658 C   0  0  0  0  0  0  0  0  0  0  0  0
    1.1676   45.4571  129.4484 C   0  0  0  0  0  0  0  0  0  0  0  0
    1.3917   45.9813  128.0896 C   0  0  0  0  0  0  0  0  0  0  0  0
    0.3242   44.0138  133.1831 O   0  0  0  0  0  0  0  0  0  0  0  0
    1.0467   42.9839  133.8219 C   0  0  0  0  0  0  0  0  0  0  0  0
    1.5675   42.1857  132.8188 F   0  0  0  0  0  0  0  0  0  0  0  0
    0.1809   42.2922  134.6428 F   0  0  0  0  0  0  0  0  0  0  0  0
    2.0783   43.5165  134.5796 F   0  0  0  0  0  0  0  0  0  0  0  0
 10 11  1  0  0  0
 11 12  1  0  0  0
 12 13  1  0  0  0
 13 14  1  0  0  0
 14 15  1  0  0  0
 15 16  1  0  0  0
 14 17  1  0  0  0
 17 18  2  0  0  0
 17  4  1  0  0  0
  4  5  2  0  0  0
  5  6  1  0  0  0
  6  7  2  0  0  0
  7  8  1  0  0  0
  8  9  2  0  0  0
  7  1  1  0  0  0
  1  2  2  0  0  0
  1  3  2  0  0  0
  1 19  1  0  0  0
 19 20  1  0  0  0
 20 21  2  0  0  0
 20 22  1  0  0  0
 22 25  1  0  0  0
 25 26  2  0  0  0
 26 27  1  0  0  0
 27 32  1  0  0  0
 32 33  1  0  0  0
 33 34  1  0  0  0
 33 35  1  0  0  0
 33 36  1  0  0  0
 27 28  2  0  0  0
 28 29  1  0  0  0
 29 30  2  0  0  0
 30 31  1  0  0  0
 16 11  1  0  0  0
  9  4  1  0  0  0
 30 25  1  0  0  0
 19 23  1  0  0  0
 22 24  1  0  0  0
M  END
> <minimizedAffinity>
21.73907

> <CNNscore>
0.5521069765

> <CNNaffinity>
7.1812200546

> <CNN_VS>
3.9648017883

> <CNNaffinity_variance>
1.2774832249

$$$$
[H]c1c([H])c(C([H])([H])[H])c(N([H])C(=O)N([H])S(=O)(=O)c2c([H])c([H])c(C(=O)N3C([H])([H])C([H])([H])N(C([H])([H])[H])C([H])([H])C3([H])[H])c([H])c2[H])c([H])c1OC(F)(F)F


 36 38  0  0  0  0  0  0  0  0999 V2000
    8.1049   50.2832  131.3000 S   0  0  0  0  0  0  0  0  0  0  0  0
    8.8246   50.9583  132.4721 O   0  0  0  0  0  0  0  0  0  0  0  0
    6.6557   50.1700  131.6546 O   0  0  0  0  0  0  0  0  0  0  0  0
   10.0273   46.2401  130.4520 C   0  0  0  0  0  0  0  0  0  0  0  0
   10.7414   47.2356  131.0528 C   0  0  0  0  0  0  0  0  0  0  0  0
   10.1416   48.4705  131.3396 C   0  0  0  0  0  0  0  0  0  0  0  0
    8.8373   48.7299  131.0350 C   0  0  0  0  0  0  0  0  0  0  0  0
    8.1018   47.7383  130.4292 C   0  0  0  0  0  0  0  0  0  0  0  0
    8.6763   46.5462  130.1513 C   0  0  0  0  0  0  0  0  0  0  0  0
    8.5493   39.9040  129.9126 C   0  0  0  0  0  0  0  0  0  0  0  0
    8.6169   41.3660  129.7408 N   0  0  0  0  0  0  0  0  0  0  0  0
    8.2937   41.9995  130.9643 C   0  0  0  0  0  0  0  0  0  0  0  0
    8.7628   43.4087  131.1875 C   0  0  0  0  0  0  0  0  0  0  0  0
    9.9461   43.6891  130.4723 N   0  0  0  0  0  0  0  0  0  0  0  0
   10.7354   42.4620  130.0981 C   0  0  0  0  0  0  0  0  0  0  0  0
    9.8452   41.7430  129.1272 C   0  0  0  0  0  0  0  0  0  0  0  0
   10.4883   44.9142  130.1171 C   0  0  0  0  0  0  0  0  0  0  0  0
   11.5695   44.8340  129.3663 O   0  0  0  0  0  0  0  0  0  0  0  0
    8.3247   51.3285  129.9676 N   0  0  0  0  0  0  0  0  0  0  0  0
    7.1601   51.7288  129.1929 C   0  0  0  0  0  0  0  0  0  0  0  0
    6.0801   51.2160  129.6628 O   0  0  0  0  0  0  0  0  0  0  0  0
    7.2051   52.5385  128.1116 N   0  0  0  0  0  0  0  0  0  0  0  0
    9.2400   51.6718  129.7043 H   0  0  0  0  0  0  0  0  0  0  0  0
    5.8386   52.6512  128.1452 H   0  0  0  0  0  0  0  0  0  0  0  0
    7.2485   53.3522  127.0248 C   0  0  0  0  0  0  0  0  0  0  0  0
    7.8529   53.1341  125.7865 C   0  0  0  0  0  0  0  0  0  0  0  0
    7.9225   54.0779  124.7925 C   0  0  0  0  0  0  0  0  0  0  0  0
    7.3857   55.3173  124.9781 C   0  0  0  0  0  0  0  0  0  0  0  0
    6.7761   55.5939  126.1736 C   0  0  0  0  0  0  0  0  0  0  0  0
    6.7108   54.6460  127.1539 C   0  0  0  0  0  0  0  0  0  0  0  0
    6.0064   55.0177  128.3938 C   0  0  0  0  0  0  0  0  0  0  0  0
    8.5405   53.7648  123.6018 O   0  0  0  0  0  0  0  0  0  0  0  0
    8.6681   54.6472  122.5083 C   0  0  0  0  0  0  0  0  0  0  0  0
    7.4573   55.3065  122.3891 F   0  0  0  0  0  0  0  0  0  0  0  0
    8.9710   53.9053  121.3858 F   0  0  0  0  0  0  0  0  0  0  0  0
    9.6798   55.5652  122.7444 F   0  0  0  0  0  0  0  0  0  0  0  0
 10 11  1  0  0  0
 11 12  1  0  0  0
 12 13  1  0  0  0
 13 14  1  0  0  0
 14 15  1  0  0  0
 15 16  1  0  0  0
 14 17  1  0  0  0
 17 18  2  0  0  0
 17  4  1  0  0  0
  4  5  2  0  0  0
  5  6  1  0  0  0
  6  7  2  0  0  0
  7  8  1  0  0  0
  8  9  2  0  0  0
  7  1  1  0  0  0
  1  2  2  0  0  0
  1  3  2  0  0  0
  1 19  1  0  0  0
 19 20  1  0  0  0
 20 21  2  0  0  0
 20 22  1  0  0  0
 22 25  1  0  0  0
 25 26  2  0  0  0
 26 27  1  0  0  0
 27 32  1  0  0  0
 32 33  1  0  0  0
 33 34  1  0  0  0
 33 35  1  0  0  0
 33 36  1  0  0  0
 27 28  2  0  0  0
 28 29  1  0  0  0
 29 30  2  0  0  0
 30 31  1  0  0  0
 16 11  1  0  0  0
  9  4  1  0  0  0
 30 25  1  0  0  0
 19 23  1  0  0  0
 22 24  1  0  0  0
M  END
> <minimizedAffinity>
16.43352

> <CNNscore>
0.4674233198

> <CNNaffinity>
6.9304151535

> <CNN_VS>
3.2394375801

> <CNNaffinity_variance>
1.3153192997

$$$$
[H]c1c([H])c(C([H])([H])[H])c(N([H])C(=O)N([H])S(=O)(=O)c2c([H])c([H])c(C(=O)N3C([H])([H])C([H])([H])N(C([H])([H])[H])C([H])([H])C3([H])[H])c([H])c2[H])c([H])c1OC(F)(F)F


 36 38  0  0  0  0  0  0  0  0999 V2000
    9.3237   49.9661  132.4954 S   0  0  0  0  0  0  0  0  0  0  0  0
    8.4859   50.2288  133.7510 O   0  0  0  0  0  0  0  0  0  0  0  0
   10.6717   50.5802  132.7057 O   0  0  0  0  0  0  0  0  0  0  0  0
    7.2782   51.8596  128.8910 C   0  0  0  0  0  0  0  0  0  0  0  0
    7.6128   50.5368  128.8832 C   0  0  0  0  0  0  0  0  0  0  0  0
    8.2167   49.9473  130.0033 C   0  0  0  0  0  0  0  0  0  0  0  0
    8.4941   50.6581  131.1343 C   0  0  0  0  0  0  0  0  0  0  0  0
    8.1637   51.9927  131.1605 C   0  0  0  0  0  0  0  0  0  0  0  0
    7.5811   52.5648  130.0827 C   0  0  0  0  0  0  0  0  0  0  0  0
    8.0076   55.5972  123.5881 C   0  0  0  0  0  0  0  0  0  0  0  0
    8.0148   54.4820  124.5513 N   0  0  0  0  0  0  0  0  0  0  0  0
    8.7280   54.8664  125.7117 C   0  0  0  0  0  0  0  0  0  0  0  0
    8.4616   54.1302  126.9934 C   0  0  0  0  0  0  0  0  0  0  0  0
    7.1499   53.6128  127.0403 N   0  0  0  0  0  0  0  0  0  0  0  0
    6.1874   54.3114  126.1161 C   0  0  0  0  0  0  0  0  0  0  0  0
    6.6976   53.9774  124.7449 C   0  0  0  0  0  0  0  0  0  0  0  0
    6.6320   52.6033  127.8364 C   0  0  0  0  0  0  0  0  0  0  0  0
    5.3776   52.2923  127.5738 O   0  0  0  0  0  0  0  0  0  0  0  0
    9.4423   48.2667  132.3743 N   0  0  0  0  0  0  0  0  0  0  0  0
    9.1484   47.6341  131.0975 C   0  0  0  0  0  0  0  0  0  0  0  0
    8.8387   48.5000  130.2006 O   0  0  0  0  0  0  0  0  0  0  0  0
    9.1933   46.3011  130.8787 N   0  0  0  0  0  0  0  0  0  0  0  0
    9.7080   47.6929  133.1650 H   0  0  0  0  0  0  0  0  0  0  0  0
    9.0970   46.5244  129.5289 H   0  0  0  0  0  0  0  0  0  0  0  0
    9.2381   44.9617  130.6571 C   0  0  0  0  0  0  0  0  0  0  0  0
    8.9436   43.9153  131.5315 C   0  0  0  0  0  0  0  0  0  0  0  0
    9.1269   42.5897  131.2271 C   0  0  0  0  0  0  0  0  0  0  0  0
    9.6251   42.2223  130.0124 C   0  0  0  0  0  0  0  0  0  0  0  0
    9.9332   43.2041  129.1076 C   0  0  0  0  0  0  0  0  0  0  0  0
    9.7440   44.5194  129.4209 C   0  0  0  0  0  0  0  0  0  0  0  0
   10.0690   45.5063  128.3759 C   0  0  0  0  0  0  0  0  0  0  0  0
    8.8039   41.6285  132.1597 O   0  0  0  0  0  0  0  0  0  0  0  0
    7.6984   41.6985  133.0336 C   0  0  0  0  0  0  0  0  0  0  0  0
    6.5713   41.4707  132.2639 F   0  0  0  0  0  0  0  0  0  0  0  0
    7.6871   42.9472  133.6188 F   0  0  0  0  0  0  0  0  0  0  0  0
    7.7982   40.7263  134.0169 F   0  0  0  0  0  0  0  0  0  0  0  0
 10 11  1  0  0  0
 11 12  1  0  0  0
 12 13  1  0  0  0
 13 14  1  0  0  0
 14 15  1  0  0  0
 15 16  1  0  0  0
 14 17  1  0  0  0
 17 18  2  0  0  0
 17  4  1  0  0  0
  4  5  2  0  0  0
  5  6  1  0  0  0
  6  7  2  0  0  0
  7  8  1  0  0  0
  8  9  2  0  0  0
  7  1  1  0  0  0
  1  2  2  0  0  0
  1  3  2  0  0  0
  1 19  1  0  0  0
 19 20  1  0  0  0
 20 21  2  0  0  0
 20 22  1  0  0  0
 22 25  1  0  0  0
 25 26  2  0  0  0
 26 27  1  0  0  0
 27 32  1  0  0  0
 32 33  1  0  0  0
 33 34  1  0  0  0
 33 35  1  0  0  0
 33 36  1  0  0  0
 27 28  2  0  0  0
 28 29  1  0  0  0
 29 30  2  0  0  0
 30 31  1  0  0  0
 16 11  1  0  0  0
  9  4  1  0  0  0
 30 25  1  0  0  0
 19 23  1  0  0  0
 22 24  1  0  0  0
M  END
> <minimizedAffinity>
21.00359

> <CNNscore>
0.4610300362

> <CNNaffinity>
6.7775788307

> <CNN_VS>
3.1246674061

> <CNNaffinity_variance>
1.1322896481

$$$$
[H]c1c([H])c(C([H])([H])[H])c(N([H])C(=O)N([H])S(=O)(=O)c2c([H])c([H])c(C(=O)N3C([H])([H])C([H])([H])N(C([H])([H])[H])C([H])([H])C3([H])[H])c([H])c2[H])c([H])c1OC(F)(F)F


 36 38  0  0  0  0  0  0  0  0999 V2000
    7.7705   50.9505  130.4836 S   0  0  0  0  0  0  0  0  0  0  0  0
    8.6486   51.5452  131.5893 O   0  0  0  0  0  0  0  0  0  0  0  0
    6.3691   50.8729  131.0018 O   0  0  0  0  0  0  0  0  0  0  0  0
    9.3488   46.7866  129.5181 C   0  0  0  0  0  0  0  0  0  0  0  0
    8.4407   47.3916  128.6988 C   0  0  0  0  0  0  0  0  0  0  0  0
    7.9762   48.6845  128.9806 C   0  0  0  0  0  0  0  0  0  0  0  0
    8.4032   49.3858  130.0701 C   0  0  0  0  0  0  0  0  0  0  0  0
    9.3187   48.7921  130.9071 C   0  0  0  0  0  0  0  0  0  0  0  0
    9.7693   47.5458  130.6389 C   0  0  0  0  0  0  0  0  0  0  0  0
   11.3219   41.2670  132.3927 C   0  0  0  0  0  0  0  0  0  0  0  0
   10.5207   42.3869  131.8680 N   0  0  0  0  0  0  0  0  0  0  0  0
   10.9932   43.6024  132.4176 C   0  0  0  0  0  0  0  0  0  0  0  0
   10.6953   44.8819  131.6897 C   0  0  0  0  0  0  0  0  0  0  0  0
   10.5529   44.6767  130.3012 N   0  0  0  0  0  0  0  0  0  0  0  0
   11.2145   43.4192  129.8016 C   0  0  0  0  0  0  0  0  0  0  0  0
   10.4287   42.3167  130.4489 C   0  0  0  0  0  0  0  0  0  0  0  0
    9.9403   45.4806  129.3528 C   0  0  0  0  0  0  0  0  0  0  0  0
    9.8984   44.9592  128.1423 O   0  0  0  0  0  0  0  0  0  0  0  0
    7.8761   52.0472  129.1786 N   0  0  0  0  0  0  0  0  0  0  0  0
    6.6975   52.2706  128.3555 C   0  0  0  0  0  0  0  0  0  0  0  0
    5.6957   51.5792  128.7659 O   0  0  0  0  0  0  0  0  0  0  0  0
    6.6581   53.1009  127.2897 N   0  0  0  0  0  0  0  0  0  0  0  0
    8.7341   52.5401  128.9643 H   0  0  0  0  0  0  0  0  0  0  0  0
    5.2913   52.9897  127.2599 H   0  0  0  0  0  0  0  0  0  0  0  0
    6.6166   53.9349  126.2183 C   0  0  0  0  0  0  0  0  0  0  0  0
    5.5996   54.1111  125.2798 C   0  0  0  0  0  0  0  0  0  0  0  0
    5.7123   54.9122  124.1712 C   0  0  0  0  0  0  0  0  0  0  0  0
    6.8665   55.5956  123.9272 C   0  0  0  0  0  0  0  0  0  0  0  0
    7.9035   55.4656  124.8133 C   0  0  0  0  0  0  0  0  0  0  0  0
    7.7786   54.6678  125.9141 C   0  0  0  0  0  0  0  0  0  0  0  0
    8.9304   54.6139  126.8317 C   0  0  0  0  0  0  0  0  0  0  0  0
    4.6487   55.0220  123.3025 O   0  0  0  0  0  0  0  0  0  0  0  0
    4.2433   54.0161  122.4000 C   0  0  0  0  0  0  0  0  0  0  0  0
    3.5306   54.6490  121.3969 F   0  0  0  0  0  0  0  0  0  0  0  0
    3.4750   53.1006  123.0881 F   0  0  0  0  0  0  0  0  0  0  0  0
    5.3493   53.3794  121.8583 F   0  0  0  0  0  0  0  0  0  0  0  0
 10 11  1  0  0  0
 11 12  1  0  0  0
 12 13  1  0  0  0
 13 14  1  0  0  0
 14 15  1  0  0  0
 15 16  1  0  0  0
 14 17  1  0  0  0
 17 18  2  0  0  0
 17  4  1  0  0  0
  4  5  2  0  0  0
  5  6  1  0  0  0
  6  7  2  0  0  0
  7  8  1  0  0  0
  8  9  2  0  0  0
  7  1  1  0  0  0
  1  2  2  0  0  0
  1  3  2  0  0  0
  1 19  1  0  0  0
 19 20  1  0  0  0
 20 21  2  0  0  0
 20 22  1  0  0  0
 22 25  1  0  0  0
 25 26  2  0  0  0
 26 27  1  0  0  0
 27 32  1  0  0  0
 32 33  1  0  0  0
 33 34  1  0  0  0
 33 35  1  0  0  0
 33 36  1  0  0  0
 27 28  2  0  0  0
 28 29  1  0  0  0
 29 30  2  0  0  0
 30 31  1  0  0  0
 16 11  1  0  0  0
  9  4  1  0  0  0
 30 25  1  0  0  0
 19 23  1  0  0  0
 22 24  1  0  0  0
M  END
> <minimizedAffinity>
6.39015

> <CNNscore>
0.4450648129

> <CNNaffinity>
6.8163084984

> <CNN_VS>
3.0336990356

> <CNNaffinity_variance>
1.2247984409

$$$$
[H]c1c([H])c(C([H])([H])[H])c(N([H])C(=O)N([H])S(=O)(=O)c2c([H])c([H])c(C(=O)N3C([H])([H])C([H])([H])N(C([H])([H])[H])C([H])([H])C3([H])[H])c([H])c2[H])c([H])c1OC(F)(F)F


 36 38  0  0  0  0  0  0  0  0999 V2000
    5.8444   47.9142  129.3950 S   0  0  0  0  0  0  0  0  0  0  0  0
    5.8959   47.0231  128.1497 O   0  0  0  0  0  0  0  0  0  0  0  0
    4.4426   47.8925  129.9176 O   0  0  0  0  0  0  0  0  0  0  0  0
    7.0412   52.1184  128.1092 C   0  0  0  0  0  0  0  0  0  0  0  0
    6.5803   51.8839  129.3719 C   0  0  0  0  0  0  0  0  0  0  0  0
    6.2387   50.5852  129.7767 C   0  0  0  0  0  0  0  0  0  0  0  0
    6.3487   49.5135  128.9397 C   0  0  0  0  0  0  0  0  0  0  0  0
    6.8117   49.7308  127.6632 C   0  0  0  0  0  0  0  0  0  0  0  0
    7.1424   50.9812  127.2690 C   0  0  0  0  0  0  0  0  0  0  0  0
    8.2262   55.5990  122.7144 C   0  0  0  0  0  0  0  0  0  0  0  0
    7.5876   54.8202  123.7901 N   0  0  0  0  0  0  0  0  0  0  0  0
    8.2091   53.5524  123.8866 C   0  0  0  0  0  0  0  0  0  0  0  0
    8.0933   52.7938  125.1777 C   0  0  0  0  0  0  0  0  0  0  0  0
    7.9444   53.6568  126.2837 N   0  0  0  0  0  0  0  0  0  0  0  0
    8.4408   55.0567  126.0336 C   0  0  0  0  0  0  0  0  0  0  0  0
    7.5070   55.5885  124.9861 C   0  0  0  0  0  0  0  0  0  0  0  0
    7.4569   53.3831  127.5520 C   0  0  0  0  0  0  0  0  0  0  0  0
    7.3633   54.4374  128.3385 O   0  0  0  0  0  0  0  0  0  0  0  0
    6.9205   47.1990  130.5117 N   0  0  0  0  0  0  0  0  0  0  0  0
    8.3463   47.2238  130.2235 C   0  0  0  0  0  0  0  0  0  0  0  0
    8.5947   47.8251  129.1158 O   0  0  0  0  0  0  0  0  0  0  0  0
    9.2947   46.6816  131.0193 N   0  0  0  0  0  0  0  0  0  0  0  0
    6.5919   46.7590  131.3623 H   0  0  0  0  0  0  0  0  0  0  0  0
   10.2652   47.3169  130.2873 H   0  0  0  0  0  0  0  0  0  0  0  0
   10.2491   46.1372  131.8180 C   0  0  0  0  0  0  0  0  0  0  0  0
   10.7135   44.8224  131.8627 C   0  0  0  0  0  0  0  0  0  0  0  0
   11.6136   44.3603  132.7899 C   0  0  0  0  0  0  0  0  0  0  0  0
   12.1114   45.1957  133.7454 C   0  0  0  0  0  0  0  0  0  0  0  0
   11.6953   46.5011  133.7543 C   0  0  0  0  0  0  0  0  0  0  0  0
   10.8014   46.9500  132.8251 C   0  0  0  0  0  0  0  0  0  0  0  0
   10.4358   48.3762  132.8872 C   0  0  0  0  0  0  0  0  0  0  0  0
   12.0125   43.0423  132.7500 O   0  0  0  0  0  0  0  0  0  0  0  0
   11.2482   41.9893  132.2042 C   0  0  0  0  0  0  0  0  0  0  0  0
   11.0083   42.3193  130.8820 F   0  0  0  0  0  0  0  0  0  0  0  0
   10.0831   41.8764  132.9336 F   0  0  0  0  0  0  0  0  0  0  0  0
   11.9532   40.7974  132.2689 F   0  0  0  0  0  0  0  0  0  0  0  0
 10 11  1  0  0  0
 11 12  1  0  0  0
 12 13  1  0  0  0
 13 14  1  0  0  0
 14 15  1  0  0  0
 15 16  1  0  0  0
 14 17  1  0  0  0
 17 18  2  0  0  0
 17  4  1  0  0  0
  4  5  2  0  0  0
  5  6  1  0  0  0
  6  7  2  0  0  0
  7  8  1  0  0  0
  8  9  2  0  0  0
  7  1  1  0  0  0
  1  2  2  0  0  0
  1  3  2  0  0  0
  1 19  1  0  0  0
 19 20  1  0  0  0
 20 21  2  0  0  0
 20 22  1  0  0  0
 22 25  1  0  0  0
 25 26  2  0  0  0
 26 27  1  0  0  0
 27 32  1  0  0  0
 32 33  1  0  0  0
 33 34  1  0  0  0
 33 35  1  0  0  0
 33 36  1  0  0  0
 27 28  2  0  0  0
 28 29  1  0  0  0
 29 30  2  0  0  0
 30 31  1  0  0  0
 16 11  1  0  0  0
  9  4  1  0  0  0
 30 25  1  0  0  0
 19 23  1  0  0  0
 22 24  1  0  0  0
M  END
> <minimizedAffinity>
6.25543

> <CNNscore>
0.4405022860

> <CNNaffinity>
6.8306365013

> <CNN_VS>
3.0089108944

> <CNNaffinity_variance>
0.6331690550

$$$$
[H]c1c([H])c(C([H])([H])[H])c(N([H])C(=O)N([H])S(=O)(=O)c2c([H])c([H])c(C(=O)N3C([H])([H])C([H])([H])N(C([H])([H])[H])C([H])([H])C3([H])[H])c([H])c2[H])c([H])c1OC(F)(F)F


 36 38  0  0  0  0  0  0  0  0999 V2000
    7.5045   50.4157  130.9497 S   0  0  0  0  0  0  0  0  0  0  0  0
    8.2587   50.8564  132.2084 O   0  0  0  0  0  0  0  0  0  0  0  0
    6.0515   50.3223  131.2939 O   0  0  0  0  0  0  0  0  0  0  0  0
    9.0707   46.3466  129.6267 C   0  0  0  0  0  0  0  0  0  0  0  0
    8.8412   47.3326  128.7118 C   0  0  0  0  0  0  0  0  0  0  0  0
    8.3860   48.5942  129.1219 C   0  0  0  0  0  0  0  0  0  0  0  0
    8.1545   48.8890  130.4337 C   0  0  0  0  0  0  0  0  0  0  0  0
    8.3806   47.9075  131.3701 C   0  0  0  0  0  0  0  0  0  0  0  0
    8.8196   46.6900  130.9789 C   0  0  0  0  0  0  0  0  0  0  0  0
   11.5714   40.8579  132.1253 C   0  0  0  0  0  0  0  0  0  0  0  0
   10.6926   41.9889  131.7792 N   0  0  0  0  0  0  0  0  0  0  0  0
   11.3263   43.2036  132.1336 C   0  0  0  0  0  0  0  0  0  0  0  0
   10.8844   44.4677  131.4536 C   0  0  0  0  0  0  0  0  0  0  0  0
   10.3781   44.2203  130.1602 N   0  0  0  0  0  0  0  0  0  0  0  0
   10.8505   42.9218  129.5607 C   0  0  0  0  0  0  0  0  0  0  0  0
   10.2307   41.8733  130.4374 C   0  0  0  0  0  0  0  0  0  0  0  0
    9.5615   45.0139  129.3700 C   0  0  0  0  0  0  0  0  0  0  0  0
    9.1899   44.4530  128.2359 O   0  0  0  0  0  0  0  0  0  0  0  0
    7.7787   51.6480  129.7995 N   0  0  0  0  0  0  0  0  0  0  0  0
    6.8145   51.8293  128.7252 C   0  0  0  0  0  0  0  0  0  0  0  0
    5.8414   50.9958  128.8171 O   0  0  0  0  0  0  0  0  0  0  0  0
    6.9259   52.7577  127.7493 N   0  0  0  0  0  0  0  0  0  0  0  0
    8.5918   52.2494  129.8458 H   0  0  0  0  0  0  0  0  0  0  0  0
    5.6329   52.5050  127.3680 H   0  0  0  0  0  0  0  0  0  0  0  0
    7.0364   53.6901  126.7677 C   0  0  0  0  0  0  0  0  0  0  0  0
    6.2497   53.8658  125.6290 C   0  0  0  0  0  0  0  0  0  0  0  0
    6.5214   54.7839  124.6458 C   0  0  0  0  0  0  0  0  0  0  0  0
    7.6137   55.5943  124.7403 C   0  0  0  0  0  0  0  0  0  0  0  0
    8.4264   55.4717  125.8367 C   0  0  0  0  0  0  0  0  0  0  0  0
    8.1443   54.5564  126.8096 C   0  0  0  0  0  0  0  0  0  0  0  0
    9.0519   54.5168  127.9699 C   0  0  0  0  0  0  0  0  0  0  0  0
    5.6814   54.8822  123.5584 O   0  0  0  0  0  0  0  0  0  0  0  0
    5.8208   54.1385  122.3676 C   0  0  0  0  0  0  0  0  0  0  0  0
    6.6996   53.1067  122.6467 F   0  0  0  0  0  0  0  0  0  0  0  0
    6.2989   54.9797  121.3848 F   0  0  0  0  0  0  0  0  0  0  0  0
    4.5965   53.6181  121.9774 F   0  0  0  0  0  0  0  0  0  0  0  0
 10 11  1  0  0  0
 11 12  1  0  0  0
 12 13  1  0  0  0
 13 14  1  0  0  0
 14 15  1  0  0  0
 15 16  1  0  0  0
 14 17  1  0  0  0
 17 18  2  0  0  0
 17  4  1  0  0  0
  4  5  2  0  0  0
  5  6  1  0  0  0
  6  7  2  0  0  0
  7  8  1  0  0  0
  8  9  2  0  0  0
  7  1  1  0  0  0
  1  2  2  0  0  0
  1  3  2  0  0  0
  1 19  1  0  0  0
 19 20  1  0  0  0
 20 21  2  0  0  0
 20 22  1  0  0  0
 22 25  1  0  0  0
 25 26  2  0  0  0
 26 27  1  0  0  0
 27 32  1  0  0  0
 32 33  1  0  0  0
 33 34  1  0  0  0
 33 35  1  0  0  0
 33 36  1  0  0  0
 27 28  2  0  0  0
 28 29  1  0  0  0
 29 30  2  0  0  0
 30 31  1  0  0  0
 16 11  1  0  0  0
  9  4  1  0  0  0
 30 25  1  0  0  0
 19 23  1  0  0  0
 22 24  1  0  0  0
M  END
> <minimizedAffinity>
10.26177

> <CNNscore>
0.4335833192

> <CNNaffinity>
6.7858734131

> <CNN_VS>
2.9422414303

> <CNNaffinity_variance>
1.0998198986

$$$$
[H]c1c([H])c(C([H])([H])[H])c(N([H])C(=O)N([H])S(=O)(=O)c2c([H])c([H])c(C(=O)N3C([H])([H])C([H])([H])N(C([H])([H])[H])C([H])([H])C3([H])[H])c([H])c2[H])c([H])c1OC(F)(F)F


 36 38  0  0  0  0  0  0  0  0999 V2000
    6.5904   47.0602  129.7280 S   0  0  0  0  0  0  0  0  0  0  0  0
    7.1551   46.2842  128.5338 O   0  0  0  0  0  0  0  0  0  0  0  0
    5.1770   46.6164  129.9375 O   0  0  0  0  0  0  0  0  0  0  0  0
    6.8284   51.4806  128.6489 C   0  0  0  0  0  0  0  0  0  0  0  0
    5.8309   51.0162  129.4560 C   0  0  0  0  0  0  0  0  0  0  0  0
    5.7739   49.6607  129.8112 C   0  0  0  0  0  0  0  0  0  0  0  0
    6.6977   48.7577  129.3724 C   0  0  0  0  0  0  0  0  0  0  0  0
    7.7105   49.2078  128.5582 C   0  0  0  0  0  0  0  0  0  0  0  0
    7.7692   50.5139  128.2136 C   0  0  0  0  0  0  0  0  0  0  0  0
    7.5368   55.5797  123.6171 C   0  0  0  0  0  0  0  0  0  0  0  0
    7.0130   54.6132  124.5985 N   0  0  0  0  0  0  0  0  0  0  0  0
    7.8344   53.4608  124.6094 C   0  0  0  0  0  0  0  0  0  0  0  0
    7.8179   52.5803  125.8261 C   0  0  0  0  0  0  0  0  0  0  0  0
    7.5033   53.3042  126.9954 N   0  0  0  0  0  0  0  0  0  0  0  0
    7.7653   54.7832  126.8837 C   0  0  0  0  0  0  0  0  0  0  0  0
    6.7794   55.2472  125.8518 C   0  0  0  0  0  0  0  0  0  0  0  0
    7.0402   52.8413  128.2170 C   0  0  0  0  0  0  0  0  0  0  0  0
    6.7553   53.7909  129.0865 O   0  0  0  0  0  0  0  0  0  0  0  0
    7.5681   46.6235  131.0585 N   0  0  0  0  0  0  0  0  0  0  0  0
    8.8506   45.9854  130.8045 C   0  0  0  0  0  0  0  0  0  0  0  0
    9.0713   45.8509  129.5462 O   0  0  0  0  0  0  0  0  0  0  0  0
    9.7060   45.5818  131.7700 N   0  0  0  0  0  0  0  0  0  0  0  0
    7.2773   46.7947  132.0130 H   0  0  0  0  0  0  0  0  0  0  0  0
   10.6778   45.3886  130.8216 H   0  0  0  0  0  0  0  0  0  0  0  0
   10.5668   45.1756  132.7392 C   0  0  0  0  0  0  0  0  0  0  0  0
   11.8219   45.6864  133.0712 C   0  0  0  0  0  0  0  0  0  0  0  0
   12.6531   45.1244  134.0075 C   0  0  0  0  0  0  0  0  0  0  0  0
   12.2766   43.9991  134.6787 C   0  0  0  0  0  0  0  0  0  0  0  0
   11.0534   43.4488  134.3988 C   0  0  0  0  0  0  0  0  0  0  0  0
   10.2340   44.0184  133.4671 C   0  0  0  0  0  0  0  0  0  0  0  0
    8.9226   43.3807  133.2547 C   0  0  0  0  0  0  0  0  0  0  0  0
   13.8751   45.7056  134.2660 O   0  0  0  0  0  0  0  0  0  0  0  0
   14.0513   46.9559  134.8957 C   0  0  0  0  0  0  0  0  0  0  0  0
   14.7044   47.7682  133.9855 F   0  0  0  0  0  0  0  0  0  0  0  0
   14.7884   46.7621  136.0451 F   0  0  0  0  0  0  0  0  0  0  0  0
   12.8227   47.5100  135.2205 F   0  0  0  0  0  0  0  0  0  0  0  0
 10 11  1  0  0  0
 11 12  1  0  0  0
 12 13  1  0  0  0
 13 14  1  0  0  0
 14 15  1  0  0  0
 15 16  1  0  0  0
 14 17  1  0  0  0
 17 18  2  0  0  0
 17  4  1  0  0  0
  4  5  2  0  0  0
  5  6  1  0  0  0
  6  7  2  0  0  0
  7  8  1  0  0  0
  8  9  2  0  0  0
  7  1  1  0  0  0
  1  2  2  0  0  0
  1  3  2  0  0  0
  1 19  1  0  0  0
 19 20  1  0  0  0
 20 21  2  0  0  0
 20 22  1  0  0  0
 22 25  1  0  0  0
 25 26  2  0  0  0
 26 27  1  0  0  0
 27 32  1  0  0  0
 32 33  1  0  0  0
 33 34  1  0  0  0
 33 35  1  0  0  0
 33 36  1  0  0  0
 27 28  2  0  0  0
 28 29  1  0  0  0
 29 30  2  0  0  0
 30 31  1  0  0  0
 16 11  1  0  0  0
  9  4  1  0  0  0
 30 25  1  0  0  0
 19 23  1  0  0  0
 22 24  1  0  0  0
M  END
> <minimizedAffinity>
12.02685

> <CNNscore>
0.4334287643

> <CNNaffinity>
6.7470107079

> <CNN_VS>
2.9243485928

> <CNNaffinity_variance>
0.8165901303

$$$$
[H]c1c([H])c(C([H])([H])[H])c(N([H])C(=O)N([H])S(=O)(=O)c2c([H])c([H])c(C(=O)N3C([H])([H])C([H])([H])N(C([H])([H])[H])C([H])([H])C3([H])[H])c([H])c2[H])c([H])c1OC(F)(F)F


 36 38  0  0  0  0  0  0  0  0999 V2000
    9.8484   44.2500  127.7526 S   0  0  0  0  0  0  0  0  0  0  0  0
    9.4555   42.8442  127.2871 O   0  0  0  0  0  0  0  0  0  0  0  0
   10.7360   44.8487  126.7075 O   0  0  0  0  0  0  0  0  0  0  0  0
   11.9373   43.7269  131.7680 C   0  0  0  0  0  0  0  0  0  0  0  0
   12.6285   44.1727  130.6792 C   0  0  0  0  0  0  0  0  0  0  0  0
   11.9794   44.3607  129.4503 C   0  0  0  0  0  0  0  0  0  0  0  0
   10.6482   44.1097  129.2888 C   0  0  0  0  0  0  0  0  0  0  0  0
    9.9352   43.6600  130.3754 C   0  0  0  0  0  0  0  0  0  0  0  0
   10.5572   43.4776  131.5620 C   0  0  0  0  0  0  0  0  0  0  0  0
   10.9026   44.2743  138.1908 C   0  0  0  0  0  0  0  0  0  0  0  0
   10.8302   43.8985  136.7678 N   0  0  0  0  0  0  0  0  0  0  0  0
   10.6314   45.0595  135.9834 C   0  0  0  0  0  0  0  0  0  0  0  0
   11.0145   45.0181  134.5318 C   0  0  0  0  0  0  0  0  0  0  0  0
   12.0610   44.1035  134.2895 N   0  0  0  0  0  0  0  0  0  0  0  0
   12.8848   43.7852  135.5097 C   0  0  0  0  0  0  0  0  0  0  0  0
   11.9276   43.0637  136.4127 C   0  0  0  0  0  0  0  0  0  0  0  0
   12.4503   43.5094  133.0993 C   0  0  0  0  0  0  0  0  0  0  0  0
   13.4194   42.6239  133.2243 O   0  0  0  0  0  0  0  0  0  0  0  0
    8.3816   45.1164  127.8731 N   0  0  0  0  0  0  0  0  0  0  0  0
    8.2681   46.1637  128.8765 C   0  0  0  0  0  0  0  0  0  0  0  0
    9.3544   46.2937  129.5497 O   0  0  0  0  0  0  0  0  0  0  0  0
    7.1587   46.9086  129.0791 N   0  0  0  0  0  0  0  0  0  0  0  0
    7.5939   44.9182  127.2687 H   0  0  0  0  0  0  0  0  0  0  0  0
    7.8796   47.7551  129.8821 H   0  0  0  0  0  0  0  0  0  0  0  0
    6.0445   47.6582  129.2840 C   0  0  0  0  0  0  0  0  0  0  0  0
    4.7229   47.2427  129.4480 C   0  0  0  0  0  0  0  0  0  0  0  0
    3.6573   48.1022  129.5443 C   0  0  0  0  0  0  0  0  0  0  0  0
    3.8492   49.4504  129.4796 C   0  0  0  0  0  0  0  0  0  0  0  0
    5.1256   49.9226  129.3204 C   0  0  0  0  0  0  0  0  0  0  0  0
    6.1780   49.0578  129.2285 C   0  0  0  0  0  0  0  0  0  0  0  0
    7.5193   49.6532  129.0938 C   0  0  0  0  0  0  0  0  0  0  0  0
    2.3875   47.5930  129.7066 O   0  0  0  0  0  0  0  0  0  0  0  0
    2.0983   46.2629  130.0776 C   0  0  0  0  0  0  0  0  0  0  0  0
    3.1329   45.4832  129.5914 F   0  0  0  0  0  0  0  0  0  0  0  0
    0.8811   45.9153  129.5301 F   0  0  0  0  0  0  0  0  0  0  0  0
    2.0353   46.1496  131.4579 F   0  0  0  0  0  0  0  0  0  0  0  0
 10 11  1  0  0  0
 11 12  1  0  0  0
 12 13  1  0  0  0
 13 14  1  0  0  0
 14 15  1  0  0  0
 15 16  1  0  0  0
 14 17  1  0  0  0
 17 18  2  0  0  0
 17  4  1  0  0  0
  4  5  2  0  0  0
  5  6  1  0  0  0
  6  7  2  0  0  0
  7  8  1  0  0  0
  8  9  2  0  0  0
  7  1  1  0  0  0
  1  2  2  0  0  0
  1  3  2  0  0  0
  1 19  1  0  0  0
 19 20  1  0  0  0
 20 21  2  0  0  0
 20 22  1  0  0  0
 22 25  1  0  0  0
 25 26  2  0  0  0
 26 27  1  0  0  0
 27 32  1  0  0  0
 32 33  1  0  0  0
 33 34  1  0  0  0
 33 35  1  0  0  0
 33 36  1  0  0  0
 27 28  2  0  0  0
 28 29  1  0  0  0
 29 30  2  0  0  0
 30 31  1  0  0  0
 16 11  1  0  0  0
  9  4  1  0  0  0
 30 25  1  0  0  0
 19 23  1  0  0  0
 22 24  1  0  0  0
M  END
> <minimizedAffinity>
21.98302

> <CNNscore>
0.4276492000

> <CNNaffinity>
7.3412332535

> <CNN_VS>
3.1394724846

> <CNNaffinity_variance>
2.1613032818

$$$$
[H]c1c([H])c(C([H])([H])[H])c(N([H])C(=O)N([H])S(=O)(=O)c2c([H])c([H])c(C(=O)N3C([H])([H])C([H])([H])N(C([H])([H])[H])C([H])([H])C3([H])[H])c([H])c2[H])c([H])c1OC(F)(F)F


 36 38  0  0  0  0  0  0  0  0999 V2000
    8.9744   49.8985  130.6938 S   0  0  0  0  0  0  0  0  0  0  0  0
    9.1600   50.9096  131.8298 O   0  0  0  0  0  0  0  0  0  0  0  0
   10.0494   50.1419  129.6820 O   0  0  0  0  0  0  0  0  0  0  0  0
    4.8704   50.4764  128.8004 C   0  0  0  0  0  0  0  0  0  0  0  0
    5.2176   49.2774  129.3516 C   0  0  0  0  0  0  0  0  0  0  0  0
    6.4701   49.1079  129.9595 C   0  0  0  0  0  0  0  0  0  0  0  0
    7.3851   50.1176  130.0261 C   0  0  0  0  0  0  0  0  0  0  0  0
    7.0526   51.3333  129.4760 C   0  0  0  0  0  0  0  0  0  0  0  0
    5.8460   51.5010  128.8892 C   0  0  0  0  0  0  0  0  0  0  0  0
    1.8325   54.0157  124.2324 C   0  0  0  0  0  0  0  0  0  0  0  0
    2.6873   53.0498  124.9450 N   0  0  0  0  0  0  0  0  0  0  0  0
    3.5454   53.7439  125.8308 C   0  0  0  0  0  0  0  0  0  0  0  0
    4.1336   52.9954  126.9925 C   0  0  0  0  0  0  0  0  0  0  0  0
    3.3032   51.9340  127.4096 N   0  0  0  0  0  0  0  0  0  0  0  0
    1.8627   52.0917  126.9990 C   0  0  0  0  0  0  0  0  0  0  0  0
    1.9025   52.0003  125.5017 C   0  0  0  0  0  0  0  0  0  0  0  0
    3.6193   50.8168  128.1666 C   0  0  0  0  0  0  0  0  0  0  0  0
    2.6287   49.9583  128.3101 O   0  0  0  0  0  0  0  0  0  0  0  0
    9.1570   48.3622  131.4170 N   0  0  0  0  0  0  0  0  0  0  0  0
    9.5386   47.2356  130.5793 C   0  0  0  0  0  0  0  0  0  0  0  0
    9.7018   47.5899  129.3553 O   0  0  0  0  0  0  0  0  0  0  0  0
    9.7012   45.9715  131.0291 N   0  0  0  0  0  0  0  0  0  0  0  0
    9.0046   48.2174  132.4073 H   0  0  0  0  0  0  0  0  0  0  0  0
   10.2808   45.6263  129.8350 H   0  0  0  0  0  0  0  0  0  0  0  0
    9.8650   44.7005  131.4796 C   0  0  0  0  0  0  0  0  0  0  0  0
   10.3423   44.2597  132.7142 C   0  0  0  0  0  0  0  0  0  0  0  0
   10.5647   42.9407  133.0215 C   0  0  0  0  0  0  0  0  0  0  0  0
   10.3220   41.9662  132.0995 C   0  0  0  0  0  0  0  0  0  0  0  0
    9.8501   42.3346  130.8670 C   0  0  0  0  0  0  0  0  0  0  0  0
    9.6302   43.6497  130.5738 C   0  0  0  0  0  0  0  0  0  0  0  0
    9.0892   43.9525  129.2370 C   0  0  0  0  0  0  0  0  0  0  0  0
   11.0370   42.6057  134.2715 O   0  0  0  0  0  0  0  0  0  0  0  0
   11.6082   43.5178  135.1839 C   0  0  0  0  0  0  0  0  0  0  0  0
   11.6290   42.8851  136.4144 F   0  0  0  0  0  0  0  0  0  0  0  0
   10.8344   44.6593  135.1971 F   0  0  0  0  0  0  0  0  0  0  0  0
   12.9013   43.8383  134.8004 F   0  0  0  0  0  0  0  0  0  0  0  0
 10 11  1  0  0  0
 11 12  1  0  0  0
 12 13  1  0  0  0
 13 14  1  0  0  0
 14 15  1  0  0  0
 15 16  1  0  0  0
 14 17  1  0  0  0
 17 18  2  0  0  0
 17  4  1  0  0  0
  4  5  2  0  0  0
  5  6  1  0  0  0
  6  7  2  0  0  0
  7  8  1  0  0  0
  8  9  2  0  0  0
  7  1  1  0  0  0
  1  2  2  0  0  0
  1  3  2  0  0  0
  1 19  1  0  0  0
 19 20  1  0  0  0
 20 21  2  0  0  0
 20 22  1  0  0  0
 22 25  1  0  0  0
 25 26  2  0  0  0
 26 27  1  0  0  0
 27 32  1  0  0  0
 32 33  1  0  0  0
 33 34  1  0  0  0
 33 35  1  0  0  0
 33 36  1  0  0  0
 27 28  2  0  0  0
 28 29  1  0  0  0
 29 30  2  0  0  0
 30 31  1  0  0  0
 16 11  1  0  0  0
  9  4  1  0  0  0
 30 25  1  0  0  0
 19 23  1  0  0  0
 22 24  1  0  0  0
M  END
> <minimizedAffinity>
20.08720

> <CNNscore>
0.4154285789

> <CNNaffinity>
6.8575201035

> <CNN_VS>
2.8488097191

> <CNNaffinity_variance>
1.1949059963

$$$$
[H]c1c([H])c([H])c2c(c1[H])N=c1c([H])c([H])c(F)c([H])c1=C(N1C([H])([H])C([H])([H])N(C([H])([H])[H])C([H])([H])C1([H])[H])N2[H]


 24 27  0  0  0  0  0  0  0  0999 V2000
   10.4053   45.6884  131.8664 C   0  0  0  0  0  0  0  0  0  0  0  0
   10.1331   46.9451  131.6147 C   0  0  0  0  0  0  0  0  0  0  0  0
   10.1124   47.6748  132.7852 C   0  0  0  0  0  0  0  0  0  0  0  0
    9.8376   49.0520  132.7349 C   0  0  0  0  0  0  0  0  0  0  0  0
    9.8301   49.7223  133.9206 F   0  0  0  0  0  0  0  0  0  0  0  0
    9.5911   49.6787  131.5490 C   0  0  0  0  0  0  0  0  0  0  0  0
    9.6080   48.9663  130.3740 C   0  0  0  0  0  0  0  0  0  0  0  0
    9.8780   47.6151  130.4259 C   0  0  0  0  0  0  0  0  0  0  0  0
    9.8439   47.1583  129.2418 N   0  0  0  0  0  0  0  0  0  0  0  0
   10.0376   45.8687  128.6790 C   0  0  0  0  0  0  0  0  0  0  0  0
    9.9062   45.8094  127.3076 C   0  0  0  0  0  0  0  0  0  0  0  0
   10.0681   44.6196  126.6279 C   0  0  0  0  0  0  0  0  0  0  0  0
   10.3654   43.5047  127.3854 C   0  0  0  0  0  0  0  0  0  0  0  0
   10.4986   43.5615  128.7698 C   0  0  0  0  0  0  0  0  0  0  0  0
   10.3357   44.7530  129.4436 C   0  0  0  0  0  0  0  0  0  0  0  0
   10.5028   44.6503  130.8529 N   0  0  0  0  0  0  0  0  0  0  0  0
   10.7270   43.7021  131.2235 H   0  0  0  0  0  0  0  0  0  0  0  0
   11.5455   43.5050  136.5280 C   0  0  0  0  0  0  0  0  0  0  0  0
   11.4103   43.4216  135.1085 N   0  0  0  0  0  0  0  0  0  0  0  0
   10.0747   43.3318  134.6269 C   0  0  0  0  0  0  0  0  0  0  0  0
    9.5913   44.5199  133.8535 C   0  0  0  0  0  0  0  0  0  0  0  0
   10.6312   45.2338  133.1788 N   0  0  0  0  0  0  0  0  0  0  0  0
   11.9333   45.4501  133.7873 C   0  0  0  0  0  0  0  0  0  0  0  0
   12.3710   44.1065  134.3452 C   0  0  0  0  0  0  0  0  0  0  0  0
 18 19  1  0  0  0
 19 20  1  0  0  0
 20 21  1  0  0  0
 21 22  1  0  0  0
 22 23  1  0  0  0
 23 24  1  0  0  0
 22  1  1  0  0  0
  1  2  2  0  0  0
  2  3  1  0  0  0
  3  4  2  0  0  0
  4  5  1  0  0  0
  4  6  1  0  0  0
  6  7  2  0  0  0
  7  8  1  0  0  0
  8  9  2  0  0  0
  9 10  1  0  0  0
 10 11  2  0  0  0
 11 12  1  0  0  0
 12 13  2  0  0  0
 13 14  1  0  0  0
 14 15  2  0  0  0
 15 16  1  0  0  0
 24 19  1  0  0  0
 16  1  1  0  0  0
  8  2  1  0  0  0
 15 10  1  0  0  0
 16 17  1  0  0  0
M  END
> <minimizedAffinity>
0.51375

> <CNNscore>
0.3441714644

> <CNNaffinity>
7.0299253464

> <CNN_VS>
2.4194996357

> <CNNaffinity_variance>
0.9504238367

$$$$
[H]c1c([H])c([H])c2c(c1[H])N=c1c([H])c([H])c(F)c([H])c1=C(N1C([H])([H])C([H])([H])N(C([H])([H])[H])C([H])([H])C1([H])[H])N2[H]


 24 27  0  0  0  0  0  0  0  0999 V2000
   10.2508   46.1842  131.5933 C   0  0  0  0  0  0  0  0  0  0  0  0
   10.3383   45.1987  132.4522 C   0  0  0  0  0  0  0  0  0  0  0  0
   10.4491   45.6904  133.7363 C   0  0  0  0  0  0  0  0  0  0  0  0
   10.5553   44.7926  134.8122 C   0  0  0  0  0  0  0  0  0  0  0  0
   10.6621   45.3336  136.0576 F   0  0  0  0  0  0  0  0  0  0  0  0
   10.5506   43.4442  134.6080 C   0  0  0  0  0  0  0  0  0  0  0  0
   10.4408   42.9381  133.3352 C   0  0  0  0  0  0  0  0  0  0  0  0
   10.3368   43.8210  132.2812 C   0  0  0  0  0  0  0  0  0  0  0  0
   10.2468   43.1484  131.2081 N   0  0  0  0  0  0  0  0  0  0  0  0
   10.1195   43.4962  129.8369 C   0  0  0  0  0  0  0  0  0  0  0  0
   10.0523   42.4248  128.9713 C   0  0  0  0  0  0  0  0  0  0  0  0
    9.9277   42.6160  127.6105 C   0  0  0  0  0  0  0  0  0  0  0  0
    9.8744   43.9221  127.1671 C   0  0  0  0  0  0  0  0  0  0  0  0
    9.9421   45.0055  128.0384 C   0  0  0  0  0  0  0  0  0  0  0  0
   10.0667   44.8085  129.3971 C   0  0  0  0  0  0  0  0  0  0  0  0
   10.1229   46.0113  130.1552 N   0  0  0  0  0  0  0  0  0  0  0  0
   10.0652   46.9008  129.6149 H   0  0  0  0  0  0  0  0  0  0  0  0
    9.7263   51.2111  133.0942 C   0  0  0  0  0  0  0  0  0  0  0  0
    9.2140   50.0336  132.4686 N   0  0  0  0  0  0  0  0  0  0  0  0
    9.7206   49.7647  131.1667 C   0  0  0  0  0  0  0  0  0  0  0  0
   10.5832   48.5455  131.0541 C   0  0  0  0  0  0  0  0  0  0  0  0
   10.2749   47.5277  132.0110 N   0  0  0  0  0  0  0  0  0  0  0  0
    9.9278   47.8466  133.3858 C   0  0  0  0  0  0  0  0  0  0  0  0
    8.8960   48.9597  133.3172 C   0  0  0  0  0  0  0  0  0  0  0  0
 18 19  1  0  0  0
 19 20  1  0  0  0
 20 21  1  0  0  0
 21 22  1  0  0  0
 22 23  1  0  0  0
 23 24  1  0  0  0
 22  1  1  0  0  0
  1  2  2  0  0  0
  2  3  1  0  0  0
  3  4  2  0  0  0
  4  5  1  0  0  0
  4  6  1  0  0  0
  6  7  2  0  0  0
  7  8  1  0  0  0
  8  9  2  0  0  0
  9 10  1  0  0  0
 10 11  2  0  0  0
 11 12  1  0  0  0
 12 13  2  0  0  0
 13 14  1  0  0  0
 14 15  2  0  0  0
 15 16  1  0  0  0
 24 19  1  0  0  0
 16  1  1  0  0  0
  8  2  1  0  0  0
 15 10  1  0  0  0
 16 17  1  0  0  0
M  END
> <minimizedAffinity>
0.32226

> <CNNscore>
0.3415530622

> <CNNaffinity>
7.0064249039

> <CNN_VS>
2.3930659294

> <CNNaffinity_variance>
0.7080273628

$$$$
[H]c1c([H])c([H])c2c(c1[H])N=c1c([H])c([H])c(F)c([H])c1=C(N1C([H])([H])C([H])([H])N(C([H])([H])[H])C([H])([H])C1([H])[H])N2[H]


 24 27  0  0  0  0  0  0  0  0999 V2000
    8.9978   47.1504  130.5339 C   0  0  0  0  0  0  0  0  0  0  0  0
    9.6040   47.2620  131.6900 C   0  0  0  0  0  0  0  0  0  0  0  0
    9.5864   48.5740  132.1160 C   0  0  0  0  0  0  0  0  0  0  0  0
   10.1874   48.9099  133.3410 C   0  0  0  0  0  0  0  0  0  0  0  0
   10.1403   50.2197  133.7116 F   0  0  0  0  0  0  0  0  0  0  0  0
   10.7874   47.9610  134.1153 C   0  0  0  0  0  0  0  0  0  0  0  0
   10.8136   46.6496  133.7055 C   0  0  0  0  0  0  0  0  0  0  0  0
   10.2232   46.3225  132.5032 C   0  0  0  0  0  0  0  0  0  0  0  0
   10.3609   45.0736  132.3208 N   0  0  0  0  0  0  0  0  0  0  0  0
    9.9692   44.1814  131.2874 C   0  0  0  0  0  0  0  0  0  0  0  0
   10.3289   42.8657  131.4908 C   0  0  0  0  0  0  0  0  0  0  0  0
   10.0127   41.8905  130.5674 C   0  0  0  0  0  0  0  0  0  0  0  0
    9.3249   42.2976  129.4420 C   0  0  0  0  0  0  0  0  0  0  0  0
    8.9606   43.6248  129.2339 C   0  0  0  0  0  0  0  0  0  0  0  0
    9.2792   44.5950  130.1600 C   0  0  0  0  0  0  0  0  0  0  0  0
    8.8399   45.9013  129.8065 N   0  0  0  0  0  0  0  0  0  0  0  0
    8.3319   45.9883  128.9005 H   0  0  0  0  0  0  0  0  0  0  0  0
    6.6916   51.5104  128.6709 C   0  0  0  0  0  0  0  0  0  0  0  0
    6.8713   50.5321  129.6961 N   0  0  0  0  0  0  0  0  0  0  0  0
    6.2406   49.2788  129.4609 C   0  0  0  0  0  0  0  0  0  0  0  0
    7.1701   48.1261  129.2360 C   0  0  0  0  0  0  0  0  0  0  0  0
    8.4357   48.2670  129.8879 N   0  0  0  0  0  0  0  0  0  0  0  0
    9.1275   49.5436  129.9529 C   0  0  0  0  0  0  0  0  0  0  0  0
    8.0929   50.5668  130.3896 C   0  0  0  0  0  0  0  0  0  0  0  0
 18 19  1  0  0  0
 19 20  1  0  0  0
 20 21  1  0  0  0
 21 22  1  0  0  0
 22 23  1  0  0  0
 23 24  1  0  0  0
 22  1  1  0  0  0
  1  2  2  0  0  0
  2  3  1  0  0  0
  3  4  2  0  0  0
  4  5  1  0  0  0
  4  6  1  0  0  0
  6  7  2  0  0  0
  7  8  1  0  0  0
  8  9  2  0  0  0
  9 10  1  0  0  0
 10 11  2  0  0  0
 11 12  1  0  0  0
 12 13  2  0  0  0
 13 14  1  0  0  0
 14 15  2  0  0  0
 15 16  1  0  0  0
 24 19  1  0  0  0
 16  1  1  0  0  0
  8  2  1  0  0  0
 15 10  1  0  0  0
 16 17  1  0  0  0
M  END
> <minimizedAffinity>
-5.28840

> <CNNscore>
0.2762121260

> <CNNaffinity>
6.9955887794

> <CNN_VS>
1.9322664738

> <CNNaffinity_variance>
0.2808149755

$$$$
[H]c1c([H])c([H])c2c(c1[H])N=c1c([H])c([H])c(F)c([H])c1=C(N1C([H])([H])C([H])([H])N(C([H])([H])[H])C([H])([H])C1([H])[H])N2[H]


 24 27  0  0  0  0  0  0  0  0999 V2000
   10.6595   45.7202  131.7903 C   0  0  0  0  0  0  0  0  0  0  0  0
    9.6879   45.6128  130.9179 C   0  0  0  0  0  0  0  0  0  0  0  0
    8.4937   46.0163  131.4782 C   0  0  0  0  0  0  0  0  0  0  0  0
    7.3209   45.9785  130.7049 C   0  0  0  0  0  0  0  0  0  0  0  0
    6.1711   46.3882  131.3092 F   0  0  0  0  0  0  0  0  0  0  0  0
    7.3438   45.5497  129.4105 C   0  0  0  0  0  0  0  0  0  0  0  0
    8.5251   45.1443  128.8373 C   0  0  0  0  0  0  0  0  0  0  0  0
    9.6745   45.1824  129.5980 C   0  0  0  0  0  0  0  0  0  0  0  0
   10.6380   44.7701  128.8814 N   0  0  0  0  0  0  0  0  0  0  0  0
   12.0280   44.5899  129.1113 C   0  0  0  0  0  0  0  0  0  0  0  0
   12.7357   44.1055  128.0314 C   0  0  0  0  0  0  0  0  0  0  0  0
   14.0949   43.8823  128.1135 C   0  0  0  0  0  0  0  0  0  0  0  0
   14.7013   44.1666  129.3205 C   0  0  0  0  0  0  0  0  0  0  0  0
   13.9895   44.6555  130.4122 C   0  0  0  0  0  0  0  0  0  0  0  0
   12.6316   44.8766  130.3245 C   0  0  0  0  0  0  0  0  0  0  0  0
   12.0466   45.3767  131.5212 N   0  0  0  0  0  0  0  0  0  0  0  0
   12.6932   45.5216  132.3258 H   0  0  0  0  0  0  0  0  0  0  0  0
    9.1997   47.3097  136.6007 C   0  0  0  0  0  0  0  0  0  0  0  0
    8.8825   46.9140  135.2654 N   0  0  0  0  0  0  0  0  0  0  0  0
    9.1105   47.9006  134.2661 C   0  0  0  0  0  0  0  0  0  0  0  0
   10.2117   47.5907  133.2994 C   0  0  0  0  0  0  0  0  0  0  0  0
   10.4266   46.1911  133.0956 N   0  0  0  0  0  0  0  0  0  0  0  0
   10.3518   45.2361  134.1887 C   0  0  0  0  0  0  0  0  0  0  0  0
    9.0769   45.5587  134.9495 C   0  0  0  0  0  0  0  0  0  0  0  0
 18 19  1  0  0  0
 19 20  1  0  0  0
 20 21  1  0  0  0
 21 22  1  0  0  0
 22 23  1  0  0  0
 23 24  1  0  0  0
 22  1  1  0  0  0
  1  2  2  0  0  0
  2  3  1  0  0  0
  3  4  2  0  0  0
  4  5  1  0  0  0
  4  6  1  0  0  0
  6  7  2  0  0  0
  7  8  1  0  0  0
  8  9  2  0  0  0
  9 10  1  0  0  0
 10 11  2  0  0  0
 11 12  1  0  0  0
 12 13  2  0  0  0
 13 14  1  0  0  0
 14 15  2  0  0  0
 15 16  1  0  0  0
 24 19  1  0  0  0
 16  1  1  0  0  0
  8  2  1  0  0  0
 15 10  1  0  0  0
 16 17  1  0  0  0
M  END
> <minimizedAffinity>
5.33302

> <CNNscore>
0.2594733238

> <CNNaffinity>
6.8603706360

> <CNN_VS>
1.7800831795

> <CNNaffinity_variance>
1.3926887512

$$$$
[H]c1c([H])c([H])c2c(c1[H])N=c1c([H])c([H])c(F)c([H])c1=C(N1C([H])([H])C([H])([H])N(C([H])([H])[H])C([H])([H])C1([H])[H])N2[H]


 24 27  0  0  0  0  0  0  0  0999 V2000
   10.0618   45.9720  130.7031 C   0  0  0  0  0  0  0  0  0  0  0  0
   10.6945   45.5164  131.7560 C   0  0  0  0  0  0  0  0  0  0  0  0
   11.0322   44.1910  131.5763 C   0  0  0  0  0  0  0  0  0  0  0  0
   11.7206   43.5101  132.5947 C   0  0  0  0  0  0  0  0  0  0  0  0
   12.0282   42.2036  132.3631 F   0  0  0  0  0  0  0  0  0  0  0  0
   12.0600   44.1373  133.7571 C   0  0  0  0  0  0  0  0  0  0  0  0
   11.7311   45.4573  133.9520 C   0  0  0  0  0  0  0  0  0  0  0  0
   11.0558   46.1233  132.9513 C   0  0  0  0  0  0  0  0  0  0  0  0
   10.8546   47.3167  133.3351 N   0  0  0  0  0  0  0  0  0  0  0  0
   10.2239   48.4457  132.7479 C   0  0  0  0  0  0  0  0  0  0  0  0
   10.2253   49.5818  133.5296 C   0  0  0  0  0  0  0  0  0  0  0  0
    9.6469   50.7527  133.0843 C   0  0  0  0  0  0  0  0  0  0  0  0
    9.0735   50.7264  131.8290 C   0  0  0  0  0  0  0  0  0  0  0  0
    9.0704   49.5812  131.0378 C   0  0  0  0  0  0  0  0  0  0  0  0
    9.6498   48.4141  131.4879 C   0  0  0  0  0  0  0  0  0  0  0  0
    9.5667   47.3324  130.5672 N   0  0  0  0  0  0  0  0  0  0  0  0
    9.0851   47.5305  129.6642 H   0  0  0  0  0  0  0  0  0  0  0  0
    9.3339   42.4374  126.8592 C   0  0  0  0  0  0  0  0  0  0  0  0
    9.9444   42.8425  128.0854 N   0  0  0  0  0  0  0  0  0  0  0  0
   11.0131   43.7727  127.9569 C   0  0  0  0  0  0  0  0  0  0  0  0
   10.7429   45.1390  128.5079 C   0  0  0  0  0  0  0  0  0  0  0  0
    9.8053   45.1527  129.5882 N   0  0  0  0  0  0  0  0  0  0  0  0
    8.6277   44.3008  129.5931 C   0  0  0  0  0  0  0  0  0  0  0  0
    9.1065   42.9104  129.2113 C   0  0  0  0  0  0  0  0  0  0  0  0
 18 19  1  0  0  0
 19 20  1  0  0  0
 20 21  1  0  0  0
 21 22  1  0  0  0
 22 23  1  0  0  0
 23 24  1  0  0  0
 22  1  1  0  0  0
  1  2  2  0  0  0
  2  3  1  0  0  0
  3  4  2  0  0  0
  4  5  1  0  0  0
  4  6  1  0  0  0
  6  7  2  0  0  0
  7  8  1  0  0  0
  8  9  2  0  0  0
  9 10  1  0  0  0
 10 11  2  0  0  0
 11 12  1  0  0  0
 12 13  2  0  0  0
 13 14  1  0  0  0
 14 15  2  0  0  0
 15 16  1  0  0  0
 24 19  1  0  0  0
 16  1  1  0  0  0
  8  2  1  0  0  0
 15 10  1  0  0  0
 16 17  1  0  0  0
M  END
> <minimizedAffinity>
-2.78397

> <CNNscore>
0.2166443914

> <CNNaffinity>
6.9584159851

> <CNN_VS>
1.5075018406

> <CNNaffinity_variance>
0.3528768122

$$$$
[H]c1c([H])c([H])c2c(c1[H])N=c1c([H])c([H])c(F)c([H])c1=C(N1C([H])([H])C([H])([H])N(C([H])([H])[H])C([H])([H])C1([H])[H])N2[H]


 24 27  0  0  0  0  0  0  0  0999 V2000
    9.0887   46.3784  130.8796 C   0  0  0  0  0  0  0  0  0  0  0  0
    9.6031   47.2271  131.7349 C   0  0  0  0  0  0  0  0  0  0  0  0
    9.0492   48.4784  131.5608 C   0  0  0  0  0  0  0  0  0  0  0  0
    9.4669   49.5385  132.3833 C   0  0  0  0  0  0  0  0  0  0  0  0
    8.8865   50.7515  132.1670 F   0  0  0  0  0  0  0  0  0  0  0  0
   10.4102   49.3509  133.3501 C   0  0  0  0  0  0  0  0  0  0  0  0
   10.9719   48.1107  133.5366 C   0  0  0  0  0  0  0  0  0  0  0  0
   10.5604   47.0721  132.7284 C   0  0  0  0  0  0  0  0  0  0  0  0
   11.1995   46.0288  133.0674 N   0  0  0  0  0  0  0  0  0  0  0  0
   11.2033   44.6848  132.6080 C   0  0  0  0  0  0  0  0  0  0  0  0
   12.0749   43.8479  133.2725 C   0  0  0  0  0  0  0  0  0  0  0  0
   12.1824   42.5155  132.9304 C   0  0  0  0  0  0  0  0  0  0  0  0
   11.3799   42.0702  131.8993 C   0  0  0  0  0  0  0  0  0  0  0  0
   10.4993   42.9126  131.2267 C   0  0  0  0  0  0  0  0  0  0  0  0
   10.3962   44.2430  131.5728 C   0  0  0  0  0  0  0  0  0  0  0  0
    9.4547   44.9736  130.7953 N   0  0  0  0  0  0  0  0  0  0  0  0
    8.9496   44.4373  130.0579 H   0  0  0  0  0  0  0  0  0  0  0  0
    5.3526   48.3689  127.7368 C   0  0  0  0  0  0  0  0  0  0  0  0
    6.0452   48.3299  128.9854 N   0  0  0  0  0  0  0  0  0  0  0  0
    5.7048   47.2435  129.8384 C   0  0  0  0  0  0  0  0  0  0  0  0
    6.7910   46.2356  130.0567 C   0  0  0  0  0  0  0  0  0  0  0  0
    8.1116   46.7748  129.9479 N   0  0  0  0  0  0  0  0  0  0  0  0
    8.4560   47.7643  128.9405 C   0  0  0  0  0  0  0  0  0  0  0  0
    7.3628   48.8183  128.9878 C   0  0  0  0  0  0  0  0  0  0  0  0
 18 19  1  0  0  0
 19 20  1  0  0  0
 20 21  1  0  0  0
 21 22  1  0  0  0
 22 23  1  0  0  0
 23 24  1  0  0  0
 22  1  1  0  0  0
  1  2  2  0  0  0
  2  3  1  0  0  0
  3  4  2  0  0  0
  4  5  1  0  0  0
  4  6  1  0  0  0
  6  7  2  0  0  0
  7  8  1  0  0  0
  8  9  2  0  0  0
  9 10  1  0  0  0
 10 11  2  0  0  0
 11 12  1  0  0  0
 12 13  2  0  0  0
 13 14  1  0  0  0
 14 15  2  0  0  0
 15 16  1  0  0  0
 24 19  1  0  0  0
 16  1  1  0  0  0
  8  2  1  0  0  0
 15 10  1  0  0  0
 16 17  1  0  0  0
M  END
> <minimizedAffinity>
-3.47105

> <CNNscore>
0.2059665620

> <CNNaffinity>
6.9334869385

> <CNN_VS>
1.4280664921

> <CNNaffinity_variance>
0.3668401837

$$$$
[H]c1c([H])c([H])c2c(c1[H])N=c1c([H])c([H])c(F)c([H])c1=C(N1C([H])([H])C([H])([H])N(C([H])([H])[H])C([H])([H])C1([H])[H])N2[H]


 24 27  0  0  0  0  0  0  0  0999 V2000
    9.7009   46.8888  131.5371 C   0  0  0  0  0  0  0  0  0  0  0  0
    8.6962   46.6937  130.7191 C   0  0  0  0  0  0  0  0  0  0  0  0
    8.0402   47.8820  130.4735 C   0  0  0  0  0  0  0  0  0  0  0  0
    6.9267   47.8912  129.6162 C   0  0  0  0  0  0  0  0  0  0  0  0
    6.3180   49.0920  129.4099 F   0  0  0  0  0  0  0  0  0  0  0  0
    6.4842   46.7454  129.0235 C   0  0  0  0  0  0  0  0  0  0  0  0
    7.1264   45.5533  129.2577 C   0  0  0  0  0  0  0  0  0  0  0  0
    8.2188   45.5469  130.0991 C   0  0  0  0  0  0  0  0  0  0  0  0
    8.6543   44.3567  130.1742 N   0  0  0  0  0  0  0  0  0  0  0  0
    9.7307   43.7453  130.8706 C   0  0  0  0  0  0  0  0  0  0  0  0
    9.8544   42.3868  130.6681 C   0  0  0  0  0  0  0  0  0  0  0  0
   10.8562   41.6640  131.2826 C   0  0  0  0  0  0  0  0  0  0  0  0
   11.7181   42.3653  132.1015 C   0  0  0  0  0  0  0  0  0  0  0  0
   11.5957   43.7364  132.3079 C   0  0  0  0  0  0  0  0  0  0  0  0
   10.5927   44.4535  131.6912 C   0  0  0  0  0  0  0  0  0  0  0  0
   10.5982   45.8424  132.0001 N   0  0  0  0  0  0  0  0  0  0  0  0
   11.3462   46.1683  132.6488 H   0  0  0  0  0  0  0  0  0  0  0  0
   10.2115   51.7177  133.5912 C   0  0  0  0  0  0  0  0  0  0  0  0
    9.4054   50.6606  133.0687 N   0  0  0  0  0  0  0  0  0  0  0  0
    9.4245   50.5211  131.6531 C   0  0  0  0  0  0  0  0  0  0  0  0
   10.0739   49.2723  131.1411 C   0  0  0  0  0  0  0  0  0  0  0  0
    9.9970   48.1669  132.0459 N   0  0  0  0  0  0  0  0  0  0  0  0
   10.1566   48.3368  133.4805 C   0  0  0  0  0  0  0  0  0  0  0  0
    9.2780   49.5135  133.8702 C   0  0  0  0  0  0  0  0  0  0  0  0
 18 19  1  0  0  0
 19 20  1  0  0  0
 20 21  1  0  0  0
 21 22  1  0  0  0
 22 23  1  0  0  0
 23 24  1  0  0  0
 22  1  1  0  0  0
  1  2  2  0  0  0
  2  3  1  0  0  0
  3  4  2  0  0  0
  4  5  1  0  0  0
  4  6  1  0  0  0
  6  7  2  0  0  0
  7  8  1  0  0  0
  8  9  2  0  0  0
  9 10  1  0  0  0
 10 11  2  0  0  0
 11 12  1  0  0  0
 12 13  2  0  0  0
 13 14  1  0  0  0
 14 15  2  0  0  0
 15 16  1  0  0  0
 24 19  1  0  0  0
 16  1  1  0  0  0
  8  2  1  0  0  0
 15 10  1  0  0  0
 16 17  1  0  0  0
M  END
> <minimizedAffinity>
1.54411

> <CNNscore>
0.1994787455

> <CNNaffinity>
6.9543862343

> <CNN_VS>
1.3872522116

> <CNNaffinity_variance>
1.0465735197

$$$$
[H]c1c([H])c([H])c2c(c1[H])N=c1c([H])c([H])c(F)c([H])c1=C(N1C([H])([H])C([H])([H])N(C([H])([H])[H])C([H])([H])C1([H])[H])N2[H]


 24 27  0  0  0  0  0  0  0  0999 V2000
    9.7775   45.3376  131.2534 C   0  0  0  0  0  0  0  0  0  0  0  0
    9.1433   44.3202  131.7817 C   0  0  0  0  0  0  0  0  0  0  0  0
    8.8135   43.4019  130.8064 C   0  0  0  0  0  0  0  0  0  0  0  0
    8.1250   42.2308  131.1658 C   0  0  0  0  0  0  0  0  0  0  0  0
    7.8253   41.3600  130.1623 F   0  0  0  0  0  0  0  0  0  0  0  0
    7.7777   41.9871  132.4619 C   0  0  0  0  0  0  0  0  0  0  0  0
    8.0987   42.8915  133.4455 C   0  0  0  0  0  0  0  0  0  0  0  0
    8.7743   44.0398  133.0904 C   0  0  0  0  0  0  0  0  0  0  0  0
    8.9675   44.7268  134.1404 N   0  0  0  0  0  0  0  0  0  0  0  0
    9.5944   45.9750  134.3978 C   0  0  0  0  0  0  0  0  0  0  0  0
    9.5839   46.3669  135.7199 C   0  0  0  0  0  0  0  0  0  0  0  0
   10.1575   47.5585  136.1136 C   0  0  0  0  0  0  0  0  0  0  0  0
   10.7359   48.3284  135.1246 C   0  0  0  0  0  0  0  0  0  0  0  0
   10.7480   47.9355  133.7893 C   0  0  0  0  0  0  0  0  0  0  0  0
   10.1733   46.7439  133.4017 C   0  0  0  0  0  0  0  0  0  0  0  0
   10.2657   46.4818  132.0063 N   0  0  0  0  0  0  0  0  0  0  0  0
   10.7495   47.2046  131.4317 H   0  0  0  0  0  0  0  0  0  0  0  0
   10.5425   45.0060  126.0473 C   0  0  0  0  0  0  0  0  0  0  0  0
   10.2928   44.3972  127.3152 N   0  0  0  0  0  0  0  0  0  0  0  0
   11.4220   44.2907  128.1740 C   0  0  0  0  0  0  0  0  0  0  0  0
   11.3696   45.1363  129.4090 C   0  0  0  0  0  0  0  0  0  0  0  0
   10.0427   45.4021  129.8730 N   0  0  0  0  0  0  0  0  0  0  0  0
    8.9496   45.6774  128.9555 C   0  0  0  0  0  0  0  0  0  0  0  0
    9.0220   44.6118  127.8750 C   0  0  0  0  0  0  0  0  0  0  0  0
 18 19  1  0  0  0
 19 20  1  0  0  0
 20 21  1  0  0  0
 21 22  1  0  0  0
 22 23  1  0  0  0
 23 24  1  0  0  0
 22  1  1  0  0  0
  1  2  2  0  0  0
  2  3  1  0  0  0
  3  4  2  0  0  0
  4  5  1  0  0  0
  4  6  1  0  0  0
  6  7  2  0  0  0
  7  8  1  0  0  0
  8  9  2  0  0  0
  9 10  1  0  0  0
 10 11  2  0  0  0
 11 12  1  0  0  0
 12 13  2  0  0  0
 13 14  1  0  0  0
 14 15  2  0  0  0
 15 16  1  0  0  0
 24 19  1  0  0  0
 16  1  1  0  0  0
  8  2  1  0  0  0
 15 10  1  0  0  0
 16 17  1  0  0  0
M  END
> <minimizedAffinity>
8.60814

> <CNNscore>
0.1869792193

> <CNNaffinity>
6.6489057541

> <CNN_VS>
1.2432072163

> <CNNaffinity_variance>
0.7387697101

$$$$
[H]c1c([H])c([H])c2c(c1[H])N=c1c([H])c([H])c(F)c([H])c1=C(N1C([H])([H])C([H])([H])N(C([H])([H])[H])C([H])([H])C1([H])[H])N2[H]


 24 27  0  0  0  0  0  0  0  0999 V2000
    9.5236   46.8421  130.9365 C   0  0  0  0  0  0  0  0  0  0  0  0
   10.1336   45.8797  130.2899 C   0  0  0  0  0  0  0  0  0  0  0  0
   10.0764   46.1043  128.9301 C   0  0  0  0  0  0  0  0  0  0  0  0
   10.6745   45.1838  128.0528 C   0  0  0  0  0  0  0  0  0  0  0  0
   10.5874   45.4559  126.7211 F   0  0  0  0  0  0  0  0  0  0  0  0
   11.3101   44.0726  128.5232 C   0  0  0  0  0  0  0  0  0  0  0  0
   11.3761   43.8341  129.8749 C   0  0  0  0  0  0  0  0  0  0  0  0
   10.7886   44.7388  130.7337 C   0  0  0  0  0  0  0  0  0  0  0  0
   10.9655   44.3295  131.9224 N   0  0  0  0  0  0  0  0  0  0  0  0
   10.5961   44.8286  133.1998 C   0  0  0  0  0  0  0  0  0  0  0  0
   10.9997   44.0508  134.2646 C   0  0  0  0  0  0  0  0  0  0  0  0
   10.7090   44.4157  135.5631 C   0  0  0  0  0  0  0  0  0  0  0  0
   10.0008   45.5876  135.7374 C   0  0  0  0  0  0  0  0  0  0  0  0
    9.5920   46.3748  134.6646 C   0  0  0  0  0  0  0  0  0  0  0  0
    9.8853   46.0052  133.3693 C   0  0  0  0  0  0  0  0  0  0  0  0
    9.4014   46.9104  132.3839 N   0  0  0  0  0  0  0  0  0  0  0  0
    8.8846   47.7440  132.7366 H   0  0  0  0  0  0  0  0  0  0  0  0
    7.0003   51.0144  128.9306 C   0  0  0  0  0  0  0  0  0  0  0  0
    7.1757   50.0328  129.9534 N   0  0  0  0  0  0  0  0  0  0  0  0
    6.6896   48.7327  129.6413 C   0  0  0  0  0  0  0  0  0  0  0  0
    7.7398   47.6760  129.4875 C   0  0  0  0  0  0  0  0  0  0  0  0
    8.9212   47.9173  130.2573 N   0  0  0  0  0  0  0  0  0  0  0  0
    9.4814   49.2501  130.4061 C   0  0  0  0  0  0  0  0  0  0  0  0
    8.3196   50.1633  130.7590 C   0  0  0  0  0  0  0  0  0  0  0  0
 18 19  1  0  0  0
 19 20  1  0  0  0
 20 21  1  0  0  0
 21 22  1  0  0  0
 22 23  1  0  0  0
 23 24  1  0  0  0
 22  1  1  0  0  0
  1  2  2  0  0  0
  2  3  1  0  0  0
  3  4  2  0  0  0
  4  5  1  0  0  0
  4  6  1  0  0  0
  6  7  2  0  0  0
  7  8  1  0  0  0
  8  9  2  0  0  0
  9 10  1  0  0  0
 10 11  2  0  0  0
 11 12  1  0  0  0
 12 13  2  0  0  0
 13 14  1  0  0  0
 14 15  2  0  0  0
 15 16  1  0  0  0
 24 19  1  0  0  0
 16  1  1  0  0  0
  8  2  1  0  0  0
 15 10  1  0  0  0
 16 17  1  0  0  0
M  END
> <minimizedAffinity>
-6.79895

> <CNNscore>
0.1821586490

> <CNNaffinity>
6.9182634354

> <CNN_VS>
1.2602214813

> <CNNaffinity_variance>
0.0487529412

$$$$
[H]c1nn(C([H])([H])C([H])([H])N(c2nc([H])c(C3([H])C([H])([H])C([H])([H])C([H])([H])C3([H])[H])c([H])c2[H])C([H])(C([H])([H])[H])C([H])([H])[H])c([H])c1-c1c([H])c([H])c2c(c([H])nn2[H])c1[H]


 32 36  0  0  0  0  0  0  0  0999 V2000
    8.0769   46.4242  130.6483 C   0  0  0  0  0  0  0  0  0  0  0  0
    8.4506   45.1118  130.8316 N   0  0  0  0  0  0  0  0  0  0  0  0
    9.8547   44.8149  130.5029 C   0  0  0  0  0  0  0  0  0  0  0  0
   10.3190   44.8636  129.2109 C   0  0  0  0  0  0  0  0  0  0  0  0
   11.6297   44.5899  128.8787 C   0  0  0  0  0  0  0  0  0  0  0  0
   12.5211   44.2492  129.8970 C   0  0  0  0  0  0  0  0  0  0  0  0
   12.0312   44.2100  131.1606 C   0  0  0  0  0  0  0  0  0  0  0  0
   10.7375   44.4839  131.4590 N   0  0  0  0  0  0  0  0  0  0  0  0
   13.9039   43.9680  129.5032 C   0  0  0  0  0  0  0  0  0  0  0  0
   14.0748   43.4313  128.1145 C   0  0  0  0  0  0  0  0  0  0  0  0
   15.6002   43.5028  127.9590 C   0  0  0  0  0  0  0  0  0  0  0  0
   16.0131   44.7467  128.7385 C   0  0  0  0  0  0  0  0  0  0  0  0
   14.7641   45.2289  129.4512 C   0  0  0  0  0  0  0  0  0  0  0  0
    7.8030   43.6261  132.7302 C   0  0  0  0  0  0  0  0  0  0  0  0
    7.7530   43.9329  131.2714 C   0  0  0  0  0  0  0  0  0  0  0  0
    8.1073   42.7152  130.4313 C   0  0  0  0  0  0  0  0  0  0  0  0
    8.4470   47.6264  131.3470 C   0  0  0  0  0  0  0  0  0  0  0  0
    9.2184   47.4695  132.5368 N   0  0  0  0  0  0  0  0  0  0  0  0
   10.3883   48.0006  132.9230 C   0  0  0  0  0  0  0  0  0  0  0  0
   10.7502   47.5580  134.1759 C   0  0  0  0  0  0  0  0  0  0  0  0
    9.7205   46.7131  134.5398 C   0  0  0  0  0  0  0  0  0  0  0  0
    8.8382   46.6922  133.5401 N   0  0  0  0  0  0  0  0  0  0  0  0
   11.9327   47.8735  134.9837 C   0  0  0  0  0  0  0  0  0  0  0  0
   12.0334   49.0781  135.6143 C   0  0  0  0  0  0  0  0  0  0  0  0
   13.1491   49.3945  136.3874 C   0  0  0  0  0  0  0  0  0  0  0  0
   14.1924   48.4928  136.5391 C   0  0  0  0  0  0  0  0  0  0  0  0
   15.3584   48.5027  137.1943 N   0  0  0  0  0  0  0  0  0  0  0  0
   15.9647   47.3473  136.9813 N   0  0  0  0  0  0  0  0  0  0  0  0
   15.2395   46.5568  136.1997 C   0  0  0  0  0  0  0  0  0  0  0  0
   14.0917   47.2569  135.8937 C   0  0  0  0  0  0  0  0  0  0  0  0
   12.9733   46.9827  135.1392 C   0  0  0  0  0  0  0  0  0  0  0  0
   15.6827   49.3122  137.7612 H   0  0  0  0  0  0  0  0  0  0  0  0
 14 15  1  0  0  0
 15 16  1  0  0  0
 15  2  1  0  0  0
  2  1  1  0  0  0
  1 17  1  0  0  0
 17 18  1  0  0  0
 18 19  1  0  0  0
 19 20  2  0  0  0
 20 21  1  0  0  0
 21 22  2  0  0  0
 20 23  1  0  0  0
 23 24  2  0  0  0
 24 25  1  0  0  0
 25 26  2  0  0  0
 26 27  1  0  0  0
 27 28  1  0  0  0
 28 29  2  0  0  0
 29 30  1  0  0  0
 30 31  2  0  0  0
  2  3  1  0  0  0
  3  4  2  0  0  0
  4  5  1  0  0  0
  5  6  2  0  0  0
  6  7  1  0  0  0
  7  8  2  0  0  0
  6  9  1  0  0  0
  9 10  1  0  0  0
 10 11  1  0  0  0
 11 12  1  0  0  0
 12 13  1  0  0  0
 22 18  1  0  0  0
 31 23  1  0  0  0
  8  3  1  0  0  0
 13  9  1  0  0  0
 30 26  1  0  0  0
 27 32  1  0  0  0
M  END
> <minimizedAffinity>
24.07997

> <CNNscore>
0.4980367720

> <CNNaffinity>
7.3959321976

> <CNN_VS>
3.6834461689

> <CNNaffinity_variance>
1.5491781235

$$$$
[H]c1nn(C([H])([H])C([H])([H])N(c2nc([H])c(C3([H])C([H])([H])C([H])([H])C([H])([H])C3([H])[H])c([H])c2[H])C([H])(C([H])([H])[H])C([H])([H])[H])c([H])c1-c1c([H])c([H])c2c(c([H])nn2[H])c1[H]


 32 36  0  0  0  0  0  0  0  0999 V2000
    7.1684   46.0610  130.3063 C   0  0  0  0  0  0  0  0  0  0  0  0
    7.8349   44.9912  130.8602 N   0  0  0  0  0  0  0  0  0  0  0  0
    9.1893   44.7621  130.3301 C   0  0  0  0  0  0  0  0  0  0  0  0
   10.2478   44.4717  131.1562 C   0  0  0  0  0  0  0  0  0  0  0  0
   11.5250   44.2530  130.6830 C   0  0  0  0  0  0  0  0  0  0  0  0
   11.7517   44.3300  129.3080 C   0  0  0  0  0  0  0  0  0  0  0  0
   10.6863   44.6186  128.5207 C   0  0  0  0  0  0  0  0  0  0  0  0
    9.4408   44.8290  129.0128 N   0  0  0  0  0  0  0  0  0  0  0  0
   13.1208   44.0894  128.8457 C   0  0  0  0  0  0  0  0  0  0  0  0
   13.8881   45.3170  128.4586 C   0  0  0  0  0  0  0  0  0  0  0  0
   15.2995   44.7382  128.2883 C   0  0  0  0  0  0  0  0  0  0  0  0
   15.3994   43.6398  129.3414 C   0  0  0  0  0  0  0  0  0  0  0  0
   14.0121   43.5045  129.9394 C   0  0  0  0  0  0  0  0  0  0  0  0
    7.8975   44.3112  133.2612 C   0  0  0  0  0  0  0  0  0  0  0  0
    7.4887   44.0142  131.8579 C   0  0  0  0  0  0  0  0  0  0  0  0
    7.8948   42.6081  131.4427 C   0  0  0  0  0  0  0  0  0  0  0  0
    7.2285   47.4706  130.5889 C   0  0  0  0  0  0  0  0  0  0  0  0
    8.3098   47.9196  131.4039 N   0  0  0  0  0  0  0  0  0  0  0  0
    9.2611   47.2548  132.0769 C   0  0  0  0  0  0  0  0  0  0  0  0
   10.1100   48.1201  132.7306 C   0  0  0  0  0  0  0  0  0  0  0  0
    9.6168   49.3706  132.4152 C   0  0  0  0  0  0  0  0  0  0  0  0
    8.5529   49.2024  131.6290 N   0  0  0  0  0  0  0  0  0  0  0  0
   11.2770   47.8411  133.5737 C   0  0  0  0  0  0  0  0  0  0  0  0
   11.9794   46.6834  133.4144 C   0  0  0  0  0  0  0  0  0  0  0  0
   13.0920   46.4023  134.2055 C   0  0  0  0  0  0  0  0  0  0  0  0
   13.5192   47.2925  135.1800 C   0  0  0  0  0  0  0  0  0  0  0  0
   14.5179   47.3075  136.0695 N   0  0  0  0  0  0  0  0  0  0  0  0
   14.4430   48.4327  136.7596 N   0  0  0  0  0  0  0  0  0  0  0  0
   13.4202   49.1785  136.3602 C   0  0  0  0  0  0  0  0  0  0  0  0
   12.8009   48.4802  135.3453 C   0  0  0  0  0  0  0  0  0  0  0  0
   11.7076   48.7207  134.5439 C   0  0  0  0  0  0  0  0  0  0  0  0
   15.2087   46.5350  136.1587 H   0  0  0  0  0  0  0  0  0  0  0  0
 14 15  1  0  0  0
 15 16  1  0  0  0
 15  2  1  0  0  0
  2  1  1  0  0  0
  1 17  1  0  0  0
 17 18  1  0  0  0
 18 19  1  0  0  0
 19 20  2  0  0  0
 20 21  1  0  0  0
 21 22  2  0  0  0
 20 23  1  0  0  0
 23 24  2  0  0  0
 24 25  1  0  0  0
 25 26  2  0  0  0
 26 27  1  0  0  0
 27 28  1  0  0  0
 28 29  2  0  0  0
 29 30  1  0  0  0
 30 31  2  0  0  0
  2  3  1  0  0  0
  3  4  2  0  0  0
  4  5  1  0  0  0
  5  6  2  0  0  0
  6  7  1  0  0  0
  7  8  2  0  0  0
  6  9  1  0  0  0
  9 10  1  0  0  0
 10 11  1  0  0  0
 11 12  1  0  0  0
 12 13  1  0  0  0
 22 18  1  0  0  0
 31 23  1  0  0  0
  8  3  1  0  0  0
 13  9  1  0  0  0
 30 26  1  0  0  0
 27 32  1  0  0  0
M  END
> <minimizedAffinity>
16.50823

> <CNNscore>
0.4791433811

> <CNNaffinity>
7.6474227905

> <CNN_VS>
3.6642119884

> <CNNaffinity_variance>
1.4787131548

$$$$
[H]c1nn(C([H])([H])C([H])([H])N(c2nc([H])c(C3([H])C([H])([H])C([H])([H])C([H])([H])C3([H])[H])c([H])c2[H])C([H])(C([H])([H])[H])C([H])([H])[H])c([H])c1-c1c([H])c([H])c2c(c([H])nn2[H])c1[H]


 32 36  0  0  0  0  0  0  0  0999 V2000
   13.2701   44.5246  131.0198 C   0  0  0  0  0  0  0  0  0  0  0  0
   12.5422   44.8716  132.1358 N   0  0  0  0  0  0  0  0  0  0  0  0
   11.4033   43.9874  132.4334 C   0  0  0  0  0  0  0  0  0  0  0  0
   10.3653   44.3933  133.2365 C   0  0  0  0  0  0  0  0  0  0  0  0
    9.2878   43.5831  133.5292 C   0  0  0  0  0  0  0  0  0  0  0  0
    9.2504   42.2975  132.9873 C   0  0  0  0  0  0  0  0  0  0  0  0
   10.2901   41.9278  132.1994 C   0  0  0  0  0  0  0  0  0  0  0  0
   11.3370   42.7451  131.9280 N   0  0  0  0  0  0  0  0  0  0  0  0
    8.0887   41.4695  133.3203 C   0  0  0  0  0  0  0  0  0  0  0  0
    7.6512   41.5310  134.7522 C   0  0  0  0  0  0  0  0  0  0  0  0
    6.3118   40.7847  134.6812 C   0  0  0  0  0  0  0  0  0  0  0  0
    5.7357   41.1479  133.3168 C   0  0  0  0  0  0  0  0  0  0  0  0
    6.8228   41.9208  132.5947 C   0  0  0  0  0  0  0  0  0  0  0  0
   13.7363   46.9322  132.8837 C   0  0  0  0  0  0  0  0  0  0  0  0
   12.6415   45.9411  133.0930 C   0  0  0  0  0  0  0  0  0  0  0  0
   12.6182   45.4275  134.5248 C   0  0  0  0  0  0  0  0  0  0  0  0
   12.8623   44.2141  129.6753 C   0  0  0  0  0  0  0  0  0  0  0  0
   11.6591   44.8227  129.2094 N   0  0  0  0  0  0  0  0  0  0  0  0
   10.8012   45.6738  129.7920 C   0  0  0  0  0  0  0  0  0  0  0  0
    9.7664   46.0010  128.9441 C   0  0  0  0  0  0  0  0  0  0  0  0
   10.0435   45.2912  127.7927 C   0  0  0  0  0  0  0  0  0  0  0  0
   11.1715   44.6096  127.9959 N   0  0  0  0  0  0  0  0  0  0  0  0
    8.6169   46.8868  129.1552 C   0  0  0  0  0  0  0  0  0  0  0  0
    7.3638   46.3668  129.2906 C   0  0  0  0  0  0  0  0  0  0  0  0
    6.2600   47.1934  129.4935 C   0  0  0  0  0  0  0  0  0  0  0  0
    6.4025   48.5715  129.5640 C   0  0  0  0  0  0  0  0  0  0  0  0
    5.5634   49.5973  129.7442 N   0  0  0  0  0  0  0  0  0  0  0  0
    6.2655   50.7174  129.7224 N   0  0  0  0  0  0  0  0  0  0  0  0
    7.5567   50.4758  129.5321 C   0  0  0  0  0  0  0  0  0  0  0  0
    7.6862   49.1072  129.4256 C   0  0  0  0  0  0  0  0  0  0  0  0
    8.7506   48.2571  129.2264 C   0  0  0  0  0  0  0  0  0  0  0  0
    4.5389   49.4748  129.8747 H   0  0  0  0  0  0  0  0  0  0  0  0
 14 15  1  0  0  0
 15 16  1  0  0  0
 15  2  1  0  0  0
  2  1  1  0  0  0
  1 17  1  0  0  0
 17 18  1  0  0  0
 18 19  1  0  0  0
 19 20  2  0  0  0
 20 21  1  0  0  0
 21 22  2  0  0  0
 20 23  1  0  0  0
 23 24  2  0  0  0
 24 25  1  0  0  0
 25 26  2  0  0  0
 26 27  1  0  0  0
 27 28  1  0  0  0
 28 29  2  0  0  0
 29 30  1  0  0  0
 30 31  2  0  0  0
  2  3  1  0  0  0
  3  4  2  0  0  0
  4  5  1  0  0  0
  5  6  2  0  0  0
  6  7  1  0  0  0
  7  8  2  0  0  0
  6  9  1  0  0  0
  9 10  1  0  0  0
 10 11  1  0  0  0
 11 12  1  0  0  0
 12 13  1  0  0  0
 22 18  1  0  0  0
 31 23  1  0  0  0
  8  3  1  0  0  0
 13  9  1  0  0  0
 30 26  1  0  0  0
 27 32  1  0  0  0
M  END
> <minimizedAffinity>
9.42114

> <CNNscore>
0.4716479778

> <CNNaffinity>
7.8535804749

> <CNN_VS>
3.7041254044

> <CNNaffinity_variance>
0.5254634619

$$$$
[H]c1nn(C([H])([H])C([H])([H])N(c2nc([H])c(C3([H])C([H])([H])C([H])([H])C([H])([H])C3([H])[H])c([H])c2[H])C([H])(C([H])([H])[H])C([H])([H])[H])c([H])c1-c1c([H])c([H])c2c(c([H])nn2[H])c1[H]


 32 36  0  0  0  0  0  0  0  0999 V2000
    9.9488   45.2772  135.8155 C   0  0  0  0  0  0  0  0  0  0  0  0
   10.7169   44.4251  135.0541 N   0  0  0  0  0  0  0  0  0  0  0  0
   10.4422   44.4669  133.6083 C   0  0  0  0  0  0  0  0  0  0  0  0
   11.3198   45.0452  132.7236 C   0  0  0  0  0  0  0  0  0  0  0  0
   11.0844   45.0961  131.3652 C   0  0  0  0  0  0  0  0  0  0  0  0
    9.9058   44.5374  130.8688 C   0  0  0  0  0  0  0  0  0  0  0  0
    9.0611   43.9750  131.7681 C   0  0  0  0  0  0  0  0  0  0  0  0
    9.3178   43.9387  133.0987 N   0  0  0  0  0  0  0  0  0  0  0  0
    9.6942   44.6101  129.4211 C   0  0  0  0  0  0  0  0  0  0  0  0
   10.8508   45.1467  128.6338 C   0  0  0  0  0  0  0  0  0  0  0  0
   10.3946   44.8434  127.1999 C   0  0  0  0  0  0  0  0  0  0  0  0
    9.6231   43.5323  127.3061 C   0  0  0  0  0  0  0  0  0  0  0  0
    9.5071   43.2326  128.7884 C   0  0  0  0  0  0  0  0  0  0  0  0
   11.8827   43.0712  136.7973 C   0  0  0  0  0  0  0  0  0  0  0  0
   11.7454   43.4688  135.3664 C   0  0  0  0  0  0  0  0  0  0  0  0
   13.0866   43.8579  134.7628 C   0  0  0  0  0  0  0  0  0  0  0  0
    9.8879   46.7138  135.8687 C   0  0  0  0  0  0  0  0  0  0  0  0
    9.7867   47.4018  134.6231 N   0  0  0  0  0  0  0  0  0  0  0  0
    8.8904   47.3263  133.6277 C   0  0  0  0  0  0  0  0  0  0  0  0
    9.1997   48.1986  132.6078 C   0  0  0  0  0  0  0  0  0  0  0  0
   10.3532   48.8212  133.0417 C   0  0  0  0  0  0  0  0  0  0  0  0
   10.6623   48.3184  134.2374 N   0  0  0  0  0  0  0  0  0  0  0  0
    8.5076   48.4524  131.3401 C   0  0  0  0  0  0  0  0  0  0  0  0
    8.7742   49.5824  130.6253 C   0  0  0  0  0  0  0  0  0  0  0  0
    8.1273   49.8392  129.4177 C   0  0  0  0  0  0  0  0  0  0  0  0
    7.1915   48.9523  128.9056 C   0  0  0  0  0  0  0  0  0  0  0  0
    6.4269   48.9189  127.8087 N   0  0  0  0  0  0  0  0  0  0  0  0
    5.7086   47.8092  127.8364 N   0  0  0  0  0  0  0  0  0  0  0  0
    5.9674   47.0919  128.9228 C   0  0  0  0  0  0  0  0  0  0  0  0
    6.9163   47.7929  129.6364 C   0  0  0  0  0  0  0  0  0  0  0  0
    7.5766   47.5759  130.8248 C   0  0  0  0  0  0  0  0  0  0  0  0
    6.4372   49.6687  127.0880 H   0  0  0  0  0  0  0  0  0  0  0  0
 14 15  1  0  0  0
 15 16  1  0  0  0
 15  2  1  0  0  0
  2  1  1  0  0  0
  1 17  1  0  0  0
 17 18  1  0  0  0
 18 19  1  0  0  0
 19 20  2  0  0  0
 20 21  1  0  0  0
 21 22  2  0  0  0
 20 23  1  0  0  0
 23 24  2  0  0  0
 24 25  1  0  0  0
 25 26  2  0  0  0
 26 27  1  0  0  0
 27 28  1  0  0  0
 28 29  2  0  0  0
 29 30  1  0  0  0
 30 31  2  0  0  0
  2  3  1  0  0  0
  3  4  2  0  0  0
  4  5  1  0  0  0
  5  6  2  0  0  0
  6  7  1  0  0  0
  7  8  2  0  0  0
  6  9  1  0  0  0
  9 10  1  0  0  0
 10 11  1  0  0  0
 11 12  1  0  0  0
 12 13  1  0  0  0
 22 18  1  0  0  0
 31 23  1  0  0  0
  8  3  1  0  0  0
 13  9  1  0  0  0
 30 26  1  0  0  0
 27 32  1  0  0  0
M  END
> <minimizedAffinity>
-0.24875

> <CNNscore>
0.4487743974

> <CNNaffinity>
8.2714509964

> <CNN_VS>
3.7120153904

> <CNNaffinity_variance>
0.4173502028

$$$$
[H]c1nn(C([H])([H])C([H])([H])N(c2nc([H])c(C3([H])C([H])([H])C([H])([H])C([H])([H])C3([H])[H])c([H])c2[H])C([H])(C([H])([H])[H])C([H])([H])[H])c([H])c1-c1c([H])c([H])c2c(c([H])nn2[H])c1[H]


 32 36  0  0  0  0  0  0  0  0999 V2000
    8.6126   44.0978  134.4087 C   0  0  0  0  0  0  0  0  0  0  0  0
    9.4330   45.2034  134.4215 N   0  0  0  0  0  0  0  0  0  0  0  0
    9.0516   46.2699  133.4809 C   0  0  0  0  0  0  0  0  0  0  0  0
    8.4805   47.4424  133.9126 C   0  0  0  0  0  0  0  0  0  0  0  0
    8.1152   48.4557  133.0506 C   0  0  0  0  0  0  0  0  0  0  0  0
    8.3345   48.2827  131.6832 C   0  0  0  0  0  0  0  0  0  0  0  0
    8.8994   47.1145  131.2902 C   0  0  0  0  0  0  0  0  0  0  0  0
    9.2490   46.1349  132.1595 N   0  0  0  0  0  0  0  0  0  0  0  0
    7.9347   49.3824  130.8018 C   0  0  0  0  0  0  0  0  0  0  0  0
    7.9760   49.0722  129.3363 C   0  0  0  0  0  0  0  0  0  0  0  0
    7.2719   50.3065  128.7560 C   0  0  0  0  0  0  0  0  0  0  0  0
    6.2178   50.6772  129.7938 C   0  0  0  0  0  0  0  0  0  0  0  0
    6.4715   49.7783  130.9889 C   0  0  0  0  0  0  0  0  0  0  0  0
   11.5759   44.4475  135.4548 C   0  0  0  0  0  0  0  0  0  0  0  0
   10.6182   45.5519  135.1590 C   0  0  0  0  0  0  0  0  0  0  0  0
   10.2951   46.3612  136.4060 C   0  0  0  0  0  0  0  0  0  0  0  0
    8.6330   42.9058  133.6031 C   0  0  0  0  0  0  0  0  0  0  0  0
    9.3085   42.9862  132.3491 N   0  0  0  0  0  0  0  0  0  0  0  0
    8.9752   43.5683  131.1873 C   0  0  0  0  0  0  0  0  0  0  0  0
    9.9559   43.3881  130.2372 C   0  0  0  0  0  0  0  0  0  0  0  0
   10.9223   42.6516  130.8930 C   0  0  0  0  0  0  0  0  0  0  0  0
   10.4962   42.4381  132.1385 N   0  0  0  0  0  0  0  0  0  0  0  0
   10.0176   43.8460  128.8454 C   0  0  0  0  0  0  0  0  0  0  0  0
    9.8788   42.9561  127.8219 C   0  0  0  0  0  0  0  0  0  0  0  0
    9.9331   43.3736  126.4932 C   0  0  0  0  0  0  0  0  0  0  0  0
   10.1301   44.7085  126.1711 C   0  0  0  0  0  0  0  0  0  0  0  0
   10.2258   45.3977  125.0288 N   0  0  0  0  0  0  0  0  0  0  0  0
   10.4175   46.6714  125.3268 N   0  0  0  0  0  0  0  0  0  0  0  0
   10.4538   46.8614  126.6399 C   0  0  0  0  0  0  0  0  0  0  0  0
   10.2726   45.6230  127.2186 C   0  0  0  0  0  0  0  0  0  0  0  0
   10.2130   45.1707  128.5175 C   0  0  0  0  0  0  0  0  0  0  0  0
   10.1539   44.9531  124.0913 H   0  0  0  0  0  0  0  0  0  0  0  0
 14 15  1  0  0  0
 15 16  1  0  0  0
 15  2  1  0  0  0
  2  1  1  0  0  0
  1 17  1  0  0  0
 17 18  1  0  0  0
 18 19  1  0  0  0
 19 20  2  0  0  0
 20 21  1  0  0  0
 21 22  2  0  0  0
 20 23  1  0  0  0
 23 24  2  0  0  0
 24 25  1  0  0  0
 25 26  2  0  0  0
 26 27  1  0  0  0
 27 28  1  0  0  0
 28 29  2  0  0  0
 29 30  1  0  0  0
 30 31  2  0  0  0
  2  3  1  0  0  0
  3  4  2  0  0  0
  4  5  1  0  0  0
  5  6  2  0  0  0
  6  7  1  0  0  0
  7  8  2  0  0  0
  6  9  1  0  0  0
  9 10  1  0  0  0
 10 11  1  0  0  0
 11 12  1  0  0  0
 12 13  1  0  0  0
 22 18  1  0  0  0
 31 23  1  0  0  0
  8  3  1  0  0  0
 13  9  1  0  0  0
 30 26  1  0  0  0
 27 32  1  0  0  0
M  END
> <minimizedAffinity>
13.63451

> <CNNscore>
0.4434304237

> <CNNaffinity>
7.8130607605

> <CNN_VS>
3.4645488262

> <CNNaffinity_variance>
1.0164884329

$$$$
[H]c1nn(C([H])([H])C([H])([H])N(c2nc([H])c(C3([H])C([H])([H])C([H])([H])C([H])([H])C3([H])[H])c([H])c2[H])C([H])(C([H])([H])[H])C([H])([H])[H])c([H])c1-c1c([H])c([H])c2c(c([H])nn2[H])c1[H]


 32 36  0  0  0  0  0  0  0  0999 V2000
    8.2623   48.0780  129.1468 C   0  0  0  0  0  0  0  0  0  0  0  0
    8.3560   46.7044  129.1579 N   0  0  0  0  0  0  0  0  0  0  0  0
    9.7297   46.1760  129.1191 C   0  0  0  0  0  0  0  0  0  0  0  0
   10.4868   46.2184  127.9736 C   0  0  0  0  0  0  0  0  0  0  0  0
   11.7757   45.7301  127.9130 C   0  0  0  0  0  0  0  0  0  0  0  0
   12.3338   45.1696  129.0628 C   0  0  0  0  0  0  0  0  0  0  0  0
   11.5603   45.1428  130.1761 C   0  0  0  0  0  0  0  0  0  0  0  0
   10.2958   45.6304  130.2076 N   0  0  0  0  0  0  0  0  0  0  0  0
   13.7049   44.6645  128.9577 C   0  0  0  0  0  0  0  0  0  0  0  0
   14.1186   43.7131  130.0390 C   0  0  0  0  0  0  0  0  0  0  0  0
   15.4579   43.2064  129.4861 C   0  0  0  0  0  0  0  0  0  0  0  0
   15.2657   43.1693  127.9738 C   0  0  0  0  0  0  0  0  0  0  0  0
   13.9203   43.8164  127.7059 C   0  0  0  0  0  0  0  0  0  0  0  0
    6.6956   45.3963  130.4858 C   0  0  0  0  0  0  0  0  0  0  0  0
    7.3851   45.6431  129.1865 C   0  0  0  0  0  0  0  0  0  0  0  0
    7.9322   44.3549  128.5901 C   0  0  0  0  0  0  0  0  0  0  0  0
    8.6001   49.0638  130.1389 C   0  0  0  0  0  0  0  0  0  0  0  0
    9.2362   48.5928  131.3259 N   0  0  0  0  0  0  0  0  0  0  0  0
    9.4992   47.3549  131.7710 C   0  0  0  0  0  0  0  0  0  0  0  0
   10.1456   47.3864  132.9867 C   0  0  0  0  0  0  0  0  0  0  0  0
   10.2647   48.7336  133.2646 C   0  0  0  0  0  0  0  0  0  0  0  0
    9.7134   49.4081  132.2549 N   0  0  0  0  0  0  0  0  0  0  0  0
   10.6207   46.2864  133.8322 C   0  0  0  0  0  0  0  0  0  0  0  0
   11.5496   45.4074  133.3595 C   0  0  0  0  0  0  0  0  0  0  0  0
   12.0138   44.3572  134.1495 C   0  0  0  0  0  0  0  0  0  0  0  0
   11.5446   44.1737  135.4421 C   0  0  0  0  0  0  0  0  0  0  0  0
   11.7880   43.2900  136.4161 N   0  0  0  0  0  0  0  0  0  0  0  0
   11.0391   43.6044  137.4593 N   0  0  0  0  0  0  0  0  0  0  0  0
   10.2961   44.6771  137.2162 C   0  0  0  0  0  0  0  0  0  0  0  0
   10.5923   45.0736  135.9292 C   0  0  0  0  0  0  0  0  0  0  0  0
   10.1593   46.0977  135.1175 C   0  0  0  0  0  0  0  0  0  0  0  0
   12.4641   42.5063  136.3138 H   0  0  0  0  0  0  0  0  0  0  0  0
 14 15  1  0  0  0
 15 16  1  0  0  0
 15  2  1  0  0  0
  2  1  1  0  0  0
  1 17  1  0  0  0
 17 18  1  0  0  0
 18 19  1  0  0  0
 19 20  2  0  0  0
 20 21  1  0  0  0
 21 22  2  0  0  0
 20 23  1  0  0  0
 23 24  2  0  0  0
 24 25  1  0  0  0
 25 26  2  0  0  0
 26 27  1  0  0  0
 27 28  1  0  0  0
 28 29  2  0  0  0
 29 30  1  0  0  0
 30 31  2  0  0  0
  2  3  1  0  0  0
  3  4  2  0  0  0
  4  5  1  0  0  0
  5  6  2  0  0  0
  6  7  1  0  0  0
  7  8  2  0  0  0
  6  9  1  0  0  0
  9 10  1  0  0  0
 10 11  1  0  0  0
 11 12  1  0  0  0
 12 13  1  0  0  0
 22 18  1  0  0  0
 31 23  1  0  0  0
  8  3  1  0  0  0
 13  9  1  0  0  0
 30 26  1  0  0  0
 27 32  1  0  0  0
M  END
> <minimizedAffinity>
15.21063

> <CNNscore>
0.4364339411

> <CNNaffinity>
7.8003158569

> <CNN_VS>
3.4043226242

> <CNNaffinity_variance>
1.9854347706

$$$$
[H]c1nn(C([H])([H])C([H])([H])N(c2nc([H])c(C3([H])C([H])([H])C([H])([H])C([H])([H])C3([H])[H])c([H])c2[H])C([H])(C([H])([H])[H])C([H])([H])[H])c([H])c1-c1c([H])c([H])c2c(c([H])nn2[H])c1[H]


 32 36  0  0  0  0  0  0  0  0999 V2000
   12.6070   43.6284  129.8213 C   0  0  0  0  0  0  0  0  0  0  0  0
   12.2040   43.5442  131.1352 N   0  0  0  0  0  0  0  0  0  0  0  0
   11.6693   44.7937  131.7013 C   0  0  0  0  0  0  0  0  0  0  0  0
   12.4554   45.9095  131.8574 C   0  0  0  0  0  0  0  0  0  0  0  0
   11.9769   47.0910  132.3849 C   0  0  0  0  0  0  0  0  0  0  0  0
   10.6390   47.1559  132.7764 C   0  0  0  0  0  0  0  0  0  0  0  0
    9.8906   46.0377  132.6093 C   0  0  0  0  0  0  0  0  0  0  0  0
   10.3869   44.8891  132.0878 N   0  0  0  0  0  0  0  0  0  0  0  0
   10.1694   48.4285  133.3297 C   0  0  0  0  0  0  0  0  0  0  0  0
   10.1425   49.5730  132.3627 C   0  0  0  0  0  0  0  0  0  0  0  0
    9.3815   50.6273  133.1783 C   0  0  0  0  0  0  0  0  0  0  0  0
    8.3739   49.8308  134.0003 C   0  0  0  0  0  0  0  0  0  0  0  0
    8.7091   48.3691  133.7730 C   0  0  0  0  0  0  0  0  0  0  0  0
   11.0798   41.5033  132.0305 C   0  0  0  0  0  0  0  0  0  0  0  0
   12.2014   42.4833  132.1070 C   0  0  0  0  0  0  0  0  0  0  0  0
   12.3905   43.0077  133.5225 C   0  0  0  0  0  0  0  0  0  0  0  0
   11.9020   44.0287  128.6326 C   0  0  0  0  0  0  0  0  0  0  0  0
   10.5823   44.5416  128.8072 N   0  0  0  0  0  0  0  0  0  0  0  0
   10.1115   45.7952  128.8895 C   0  0  0  0  0  0  0  0  0  0  0  0
    8.7443   45.8071  129.0546 C   0  0  0  0  0  0  0  0  0  0  0  0
    8.3999   44.4700  129.0694 C   0  0  0  0  0  0  0  0  0  0  0  0
    9.5186   43.7598  128.9198 N   0  0  0  0  0  0  0  0  0  0  0  0
    7.8191   46.9371  129.1875 C   0  0  0  0  0  0  0  0  0  0  0  0
    6.4838   46.7612  128.9759 C   0  0  0  0  0  0  0  0  0  0  0  0
    5.5897   47.8233  129.0994 C   0  0  0  0  0  0  0  0  0  0  0  0
    6.0313   49.0931  129.4417 C   0  0  0  0  0  0  0  0  0  0  0  0
    5.4390   50.2771  129.6316 N   0  0  0  0  0  0  0  0  0  0  0  0
    6.3692   51.1609  129.9501 N   0  0  0  0  0  0  0  0  0  0  0  0
    7.5745   50.6056  129.9805 C   0  0  0  0  0  0  0  0  0  0  0  0
    7.3999   49.2762  129.6593 C   0  0  0  0  0  0  0  0  0  0  0  0
    8.2504   48.2016  129.5274 C   0  0  0  0  0  0  0  0  0  0  0  0
    4.4136   50.4200  129.5316 H   0  0  0  0  0  0  0  0  0  0  0  0
 14 15  1  0  0  0
 15 16  1  0  0  0
 15  2  1  0  0  0
  2  1  1  0  0  0
  1 17  1  0  0  0
 17 18  1  0  0  0
 18 19  1  0  0  0
 19 20  2  0  0  0
 20 21  1  0  0  0
 21 22  2  0  0  0
 20 23  1  0  0  0
 23 24  2  0  0  0
 24 25  1  0  0  0
 25 26  2  0  0  0
 26 27  1  0  0  0
 27 28  1  0  0  0
 28 29  2  0  0  0
 29 30  1  0  0  0
 30 31  2  0  0  0
  2  3  1  0  0  0
  3  4  2  0  0  0
  4  5  1  0  0  0
  5  6  2  0  0  0
  6  7  1  0  0  0
  7  8  2  0  0  0
  6  9  1  0  0  0
  9 10  1  0  0  0
 10 11  1  0  0  0
 11 12  1  0  0  0
 12 13  1  0  0  0
 22 18  1  0  0  0
 31 23  1  0  0  0
  8  3  1  0  0  0
 13  9  1  0  0  0
 30 26  1  0  0  0
 27 32  1  0  0  0
M  END
> <minimizedAffinity>
0.56548

> <CNNscore>
0.3954088390

> <CNNaffinity>
7.9588117599

> <CNN_VS>
3.1469845772

> <CNNaffinity_variance>
0.2197524309

$$$$
[H]c1nn(C([H])([H])C([H])([H])N(c2nc([H])c(C3([H])C([H])([H])C([H])([H])C([H])([H])C3([H])[H])c([H])c2[H])C([H])(C([H])([H])[H])C([H])([H])[H])c([H])c1-c1c([H])c([H])c2c(c([H])nn2[H])c1[H]


 32 36  0  0  0  0  0  0  0  0999 V2000
   12.5400   43.2665  131.1059 C   0  0  0  0  0  0  0  0  0  0  0  0
   11.3403   42.8589  131.6447 N   0  0  0  0  0  0  0  0  0  0  0  0
   10.6203   43.8918  132.4079 C   0  0  0  0  0  0  0  0  0  0  0  0
    9.2950   44.1685  132.1748 C   0  0  0  0  0  0  0  0  0  0  0  0
    8.5994   45.1310  132.8769 C   0  0  0  0  0  0  0  0  0  0  0  0
    9.2695   45.8539  133.8649 C   0  0  0  0  0  0  0  0  0  0  0  0
   10.5764   45.5567  134.0698 C   0  0  0  0  0  0  0  0  0  0  0  0
   11.2358   44.6049  133.3648 N   0  0  0  0  0  0  0  0  0  0  0  0
    8.4953   46.8651  134.5888 C   0  0  0  0  0  0  0  0  0  0  0  0
    8.9725   47.1593  135.9785 C   0  0  0  0  0  0  0  0  0  0  0  0
    8.1315   48.3970  136.3207 C   0  0  0  0  0  0  0  0  0  0  0  0
    7.9907   49.1488  135.0014 C   0  0  0  0  0  0  0  0  0  0  0  0
    8.5825   48.2439  133.9377 C   0  0  0  0  0  0  0  0  0  0  0  0
   11.4223   40.3729  131.8547 C   0  0  0  0  0  0  0  0  0  0  0  0
   10.6216   41.6126  131.6391 C   0  0  0  0  0  0  0  0  0  0  0  0
    9.7107   41.4864  130.4272 C   0  0  0  0  0  0  0  0  0  0  0  0
   12.8450   44.2196  130.0720 C   0  0  0  0  0  0  0  0  0  0  0  0
   11.7778   45.0583  129.6327 N   0  0  0  0  0  0  0  0  0  0  0  0
   11.0913   46.0323  130.2490 C   0  0  0  0  0  0  0  0  0  0  0  0
   10.1387   46.5774  129.4171 C   0  0  0  0  0  0  0  0  0  0  0  0
   10.2830   45.8712  128.2395 C   0  0  0  0  0  0  0  0  0  0  0  0
   11.2636   44.9845  128.4138 N   0  0  0  0  0  0  0  0  0  0  0  0
    9.1735   47.6533  129.6644 C   0  0  0  0  0  0  0  0  0  0  0  0
    9.5595   48.7874  130.3154 C   0  0  0  0  0  0  0  0  0  0  0  0
    8.6562   49.8208  130.5576 C   0  0  0  0  0  0  0  0  0  0  0  0
    7.3355   49.7273  130.1435 C   0  0  0  0  0  0  0  0  0  0  0  0
    6.2640   50.5236  130.2250 N   0  0  0  0  0  0  0  0  0  0  0  0
    5.2455   49.9104  129.6465 N   0  0  0  0  0  0  0  0  0  0  0  0
    5.6001   48.7209  129.1763 C   0  0  0  0  0  0  0  0  0  0  0  0
    6.9370   48.5656  129.4757 C   0  0  0  0  0  0  0  0  0  0  0  0
    7.8595   47.5677  129.2559 C   0  0  0  0  0  0  0  0  0  0  0  0
    6.2867   51.4590  130.6792 H   0  0  0  0  0  0  0  0  0  0  0  0
 14 15  1  0  0  0
 15 16  1  0  0  0
 15  2  1  0  0  0
  2  1  1  0  0  0
  1 17  1  0  0  0
 17 18  1  0  0  0
 18 19  1  0  0  0
 19 20  2  0  0  0
 20 21  1  0  0  0
 21 22  2  0  0  0
 20 23  1  0  0  0
 23 24  2  0  0  0
 24 25  1  0  0  0
 25 26  2  0  0  0
 26 27  1  0  0  0
 27 28  1  0  0  0
 28 29  2  0  0  0
 29 30  1  0  0  0
 30 31  2  0  0  0
  2  3  1  0  0  0
  3  4  2  0  0  0
  4  5  1  0  0  0
  5  6  2  0  0  0
  6  7  1  0  0  0
  7  8  2  0  0  0
  6  9  1  0  0  0
  9 10  1  0  0  0
 10 11  1  0  0  0
 11 12  1  0  0  0
 12 13  1  0  0  0
 22 18  1  0  0  0
 31 23  1  0  0  0
  8  3  1  0  0  0
 13  9  1  0  0  0
 30 26  1  0  0  0
 27 32  1  0  0  0
M  END
> <minimizedAffinity>
1.55636

> <CNNscore>
0.3904385269

> <CNNaffinity>
7.9957399368

> <CNN_VS>
3.1218450069

> <CNNaffinity_variance>
0.1060971618

$$$$
[H]c1nn(C([H])([H])C([H])([H])N(c2nc([H])c(C3([H])C([H])([H])C([H])([H])C([H])([H])C3([H])[H])c([H])c2[H])C([H])(C([H])([H])[H])C([H])([H])[H])c([H])c1-c1c([H])c([H])c2c(c([H])nn2[H])c1[H]


 32 36  0  0  0  0  0  0  0  0999 V2000
   10.0894   42.5782  128.5558 C   0  0  0  0  0  0  0  0  0  0  0  0
   10.2337   42.1637  129.8608 N   0  0  0  0  0  0  0  0  0  0  0  0
   10.0378   43.2164  130.8713 C   0  0  0  0  0  0  0  0  0  0  0  0
   11.0719   44.0207  131.2850 C   0  0  0  0  0  0  0  0  0  0  0  0
   10.9126   45.0133  132.2298 C   0  0  0  0  0  0  0  0  0  0  0  0
    9.6489   45.2087  132.7888 C   0  0  0  0  0  0  0  0  0  0  0  0
    8.6504   44.3983  132.3592 C   0  0  0  0  0  0  0  0  0  0  0  0
    8.8350   43.4301  131.4285 N   0  0  0  0  0  0  0  0  0  0  0  0
    9.5211   46.2737  133.7866 C   0  0  0  0  0  0  0  0  0  0  0  0
    8.1468   46.4514  134.3570 C   0  0  0  0  0  0  0  0  0  0  0  0
    8.4315   47.4269  135.5074 C   0  0  0  0  0  0  0  0  0  0  0  0
    9.8144   47.0350  136.0169 C   0  0  0  0  0  0  0  0  0  0  0  0
   10.3405   45.9960  135.0452 C   0  0  0  0  0  0  0  0  0  0  0  0
    9.6132   39.7725  130.2191 C   0  0  0  0  0  0  0  0  0  0  0  0
   10.5546   40.9014  130.4719 C   0  0  0  0  0  0  0  0  0  0  0  0
   10.8656   41.0492  131.9538 C   0  0  0  0  0  0  0  0  0  0  0  0
   10.4267   43.8175  127.9072 C   0  0  0  0  0  0  0  0  0  0  0  0
    9.7415   44.9865  128.3533 N   0  0  0  0  0  0  0  0  0  0  0  0
   10.1050   45.9773  129.1816 C   0  0  0  0  0  0  0  0  0  0  0  0
    9.1027   46.9125  129.3144 C   0  0  0  0  0  0  0  0  0  0  0  0
    8.0901   46.4305  128.5089 C   0  0  0  0  0  0  0  0  0  0  0  0
    8.5129   45.2905  127.9613 N   0  0  0  0  0  0  0  0  0  0  0  0
    9.0616   48.1465  130.1055 C   0  0  0  0  0  0  0  0  0  0  0  0
    8.3183   49.2090  129.6844 C   0  0  0  0  0  0  0  0  0  0  0  0
    8.2661   50.3891  130.4243 C   0  0  0  0  0  0  0  0  0  0  0  0
    8.9695   50.5189  131.6130 C   0  0  0  0  0  0  0  0  0  0  0  0
    9.1162   51.4915  132.5193 N   0  0  0  0  0  0  0  0  0  0  0  0
    9.9216   51.0536  133.4721 N   0  0  0  0  0  0  0  0  0  0  0  0
   10.3230   49.8111  133.2337 C   0  0  0  0  0  0  0  0  0  0  0  0
    9.7324   49.4310  132.0471 C   0  0  0  0  0  0  0  0  0  0  0  0
    9.7577   48.2830  131.2876 C   0  0  0  0  0  0  0  0  0  0  0  0
    8.6504   52.4177  132.4367 H   0  0  0  0  0  0  0  0  0  0  0  0
 14 15  1  0  0  0
 15 16  1  0  0  0
 15  2  1  0  0  0
  2  1  1  0  0  0
  1 17  1  0  0  0
 17 18  1  0  0  0
 18 19  1  0  0  0
 19 20  2  0  0  0
 20 21  1  0  0  0
 21 22  2  0  0  0
 20 23  1  0  0  0
 23 24  2  0  0  0
 24 25  1  0  0  0
 25 26  2  0  0  0
 26 27  1  0  0  0
 27 28  1  0  0  0
 28 29  2  0  0  0
 29 30  1  0  0  0
 30 31  2  0  0  0
  2  3  1  0  0  0
  3  4  2  0  0  0
  4  5  1  0  0  0
  5  6  2  0  0  0
  6  7  1  0  0  0
  7  8  2  0  0  0
  6  9  1  0  0  0
  9 10  1  0  0  0
 10 11  1  0  0  0
 11 12  1  0  0  0
 12 13  1  0  0  0
 22 18  1  0  0  0
 31 23  1  0  0  0
  8  3  1  0  0  0
 13  9  1  0  0  0
 30 26  1  0  0  0
 27 32  1  0  0  0
M  END
> <minimizedAffinity>
8.09680

> <CNNscore>
0.3753542304

> <CNNaffinity>
7.7393903732

> <CNN_VS>
2.9050128460

> <CNNaffinity_variance>
0.4753011763

$$$$
[H]c1nc(C(F)(F)F)c([H])c(C(=O)N([H])c2c([H])c([H])c(C([H])([H])[H])c(C(=O)N([H])c3c([H])c([H])c([H])c(C(=O)N([H])C(C([H])([H])[H])(C([H])([H])[H])C([H])([H])[H])c3[H])c2[H])c1[H]


 39 41  0  0  0  0  0  0  0  0999 V2000
    6.4211   45.2042  131.0010 C   0  0  0  0  0  0  0  0  0  0  0  0
    6.3600   46.4643  130.2278 C   0  0  0  0  0  0  0  0  0  0  0  0
    5.1427   47.0065  129.8049 C   0  0  0  0  0  0  0  0  0  0  0  0
    5.1029   48.1995  129.0776 C   0  0  0  0  0  0  0  0  0  0  0  0
    6.2610   48.8520  128.7709 C   0  0  0  0  0  0  0  0  0  0  0  0
    7.4707   48.2784  129.2107 C   0  0  0  0  0  0  0  0  0  0  0  0
    7.5171   47.1172  129.9208 C   0  0  0  0  0  0  0  0  0  0  0  0
    6.3182   50.0933  128.0930 N   0  0  0  0  0  0  0  0  0  0  0  0
    7.2793   51.0715  128.3803 C   0  0  0  0  0  0  0  0  0  0  0  0
    8.1486   50.9079  129.2472 O   0  0  0  0  0  0  0  0  0  0  0  0
    5.5762   50.2463  127.3339 H   0  0  0  0  0  0  0  0  0  0  0  0
    7.2659   52.3298  127.6333 C   0  0  0  0  0  0  0  0  0  0  0  0
    6.8553   53.5272  128.1744 C   0  0  0  0  0  0  0  0  0  0  0  0
    6.8711   54.6614  127.3560 C   0  0  0  0  0  0  0  0  0  0  0  0
    7.2672   54.6305  126.0723 N   0  0  0  0  0  0  0  0  0  0  0  0
    7.6730   53.4756  125.5164 C   0  0  0  0  0  0  0  0  0  0  0  0
    7.6669   52.3563  126.2935 C   0  0  0  0  0  0  0  0  0  0  0  0
    8.1137   53.4080  124.0800 C   0  0  0  0  0  0  0  0  0  0  0  0
    8.9320   54.4459  123.7404 F   0  0  0  0  0  0  0  0  0  0  0  0
    8.6043   52.1673  123.8042 F   0  0  0  0  0  0  0  0  0  0  0  0
    6.9301   53.5471  123.3361 F   0  0  0  0  0  0  0  0  0  0  0  0
    8.8172   46.6206  130.3752 C   0  0  0  0  0  0  0  0  0  0  0  0
    9.8086   46.6112  129.5829 O   0  0  0  0  0  0  0  0  0  0  0  0
    9.0184   46.1387  131.6862 N   0  0  0  0  0  0  0  0  0  0  0  0
    8.1775   46.1827  132.3329 H   0  0  0  0  0  0  0  0  0  0  0  0
   10.2098   45.6127  132.2070 C   0  0  0  0  0  0  0  0  0  0  0  0
   10.3185   45.4842  133.5825 C   0  0  0  0  0  0  0  0  0  0  0  0
   11.4481   44.9136  134.1322 C   0  0  0  0  0  0  0  0  0  0  0  0
   12.4724   44.4694  133.3073 C   0  0  0  0  0  0  0  0  0  0  0  0
   12.4019   44.5791  131.9465 C   0  0  0  0  0  0  0  0  0  0  0  0
   11.2459   45.1616  131.4104 C   0  0  0  0  0  0  0  0  0  0  0  0
   13.4304   44.1017  131.0121 C   0  0  0  0  0  0  0  0  0  0  0  0
   14.2195   43.1633  131.3875 O   0  0  0  0  0  0  0  0  0  0  0  0
   13.6006   44.6287  129.7165 N   0  0  0  0  0  0  0  0  0  0  0  0
   12.9521   45.3829  129.4140 H   0  0  0  0  0  0  0  0  0  0  0  0
   14.6281   44.1534  128.8347 C   0  0  0  0  0  0  0  0  0  0  0  0
   14.1165   43.7655  127.4629 C   0  0  0  0  0  0  0  0  0  0  0  0
   15.7234   45.1772  128.6236 C   0  0  0  0  0  0  0  0  0  0  0  0
   15.2234   42.8617  129.4193 C   0  0  0  0  0  0  0  0  0  0  0  0
  1  2  1  0  0  0
  2  3  2  0  0  0
  3  4  1  0  0  0
  4  5  2  0  0  0
  5  8  1  0  0  0
  8  9  1  0  0  0
  9 10  2  0  0  0
  9 12  1  0  0  0
 12 13  2  0  0  0
 13 14  1  0  0  0
 14 15  2  0  0  0
 15 16  1  0  0  0
 16 17  2  0  0  0
 16 18  1  0  0  0
 18 19  1  0  0  0
 18 20  1  0  0  0
 18 21  1  0  0  0
  5  6  1  0  0  0
  6  7  2  0  0  0
  7 22  1  0  0  0
 22 23  2  0  0  0
 22 24  1  0  0  0
 24 26  1  0  0  0
 26 27  2  0  0  0
 27 28  1  0  0  0
 28 29  2  0  0  0
 29 30  1  0  0  0
 30 31  2  0  0  0
 30 32  1  0  0  0
 32 33  2  0  0  0
 32 34  1  0  0  0
 34 36  1  0  0  0
 36 37  1  0  0  0
 36 38  1  0  0  0
 36 39  1  0  0  0
  7  2  1  0  0  0
 31 26  1  0  0  0
 17 12  1  0  0  0
  8 11  1  0  0  0
 24 25  1  0  0  0
 34 35  1  0  0  0
M  END
> <minimizedAffinity>
19.19406

> <CNNscore>
0.5361827016

> <CNNaffinity>
7.0407204628

> <CNN_VS>
3.7751126289

> <CNNaffinity_variance>
1.2195065022

$$$$
[H]c1nc(C(F)(F)F)c([H])c(C(=O)N([H])c2c([H])c([H])c(C([H])([H])[H])c(C(=O)N([H])c3c([H])c([H])c([H])c(C(=O)N([H])C(C([H])([H])[H])(C([H])([H])[H])C([H])([H])[H])c3[H])c2[H])c1[H]


 39 41  0  0  0  0  0  0  0  0999 V2000
    7.7243   44.7423  130.5524 C   0  0  0  0  0  0  0  0  0  0  0  0
    7.7032   46.0513  129.8628 C   0  0  0  0  0  0  0  0  0  0  0  0
    6.7026   46.3792  128.9431 C   0  0  0  0  0  0  0  0  0  0  0  0
    6.6961   47.6215  128.3025 C   0  0  0  0  0  0  0  0  0  0  0  0
    7.6740   48.5340  128.5710 C   0  0  0  0  0  0  0  0  0  0  0  0
    8.6683   48.1720  129.5018 C   0  0  0  0  0  0  0  0  0  0  0  0
    8.6802   46.9640  130.1305 C   0  0  0  0  0  0  0  0  0  0  0  0
    7.7181   49.8370  128.0197 N   0  0  0  0  0  0  0  0  0  0  0  0
    7.0322   50.9223  128.5810 C   0  0  0  0  0  0  0  0  0  0  0  0
    6.3445   50.8100  129.6048 O   0  0  0  0  0  0  0  0  0  0  0  0
    8.3162   49.9513  127.1369 H   0  0  0  0  0  0  0  0  0  0  0  0
    7.1294   52.2368  127.9453 C   0  0  0  0  0  0  0  0  0  0  0  0
    6.8799   53.4180  128.6068 C   0  0  0  0  0  0  0  0  0  0  0  0
    6.9891   54.6130  127.8882 C   0  0  0  0  0  0  0  0  0  0  0  0
    7.3246   54.6552  126.5876 N   0  0  0  0  0  0  0  0  0  0  0  0
    7.5735   53.5179  125.9152 C   0  0  0  0  0  0  0  0  0  0  0  0
    7.4739   52.3404  126.5936 C   0  0  0  0  0  0  0  0  0  0  0  0
    7.9426   53.5327  124.4573 C   0  0  0  0  0  0  0  0  0  0  0  0
    9.1870   54.0507  124.2438 F   0  0  0  0  0  0  0  0  0  0  0  0
    7.7238   52.3037  123.9118 F   0  0  0  0  0  0  0  0  0  0  0  0
    7.0174   54.4071  123.8631 F   0  0  0  0  0  0  0  0  0  0  0  0
    9.7275   46.6935  131.1171 C   0  0  0  0  0  0  0  0  0  0  0  0
   10.5062   47.6231  131.4916 O   0  0  0  0  0  0  0  0  0  0  0  0
    9.9135   45.4130  131.6802 N   0  0  0  0  0  0  0  0  0  0  0  0
    9.2312   44.6625  131.3664 H   0  0  0  0  0  0  0  0  0  0  0  0
   10.9037   45.0439  132.6025 C   0  0  0  0  0  0  0  0  0  0  0  0
   11.2073   43.6978  132.7283 C   0  0  0  0  0  0  0  0  0  0  0  0
   12.2181   43.2978  133.5781 C   0  0  0  0  0  0  0  0  0  0  0  0
   12.9286   44.2437  134.3045 C   0  0  0  0  0  0  0  0  0  0  0  0
   12.6582   45.5801  134.2074 C   0  0  0  0  0  0  0  0  0  0  0  0
   11.6279   45.9633  133.3387 C   0  0  0  0  0  0  0  0  0  0  0  0
   13.3892   46.6377  134.9188 C   0  0  0  0  0  0  0  0  0  0  0  0
   14.6612   46.5338  135.0436 O   0  0  0  0  0  0  0  0  0  0  0  0
   12.7607   47.7666  135.4809 N   0  0  0  0  0  0  0  0  0  0  0  0
   11.7305   47.8502  135.3687 H   0  0  0  0  0  0  0  0  0  0  0  0
   13.5014   48.7725  136.1869 C   0  0  0  0  0  0  0  0  0  0  0  0
   12.7418   49.3804  137.3476 C   0  0  0  0  0  0  0  0  0  0  0  0
   14.8057   48.2417  136.7431 C   0  0  0  0  0  0  0  0  0  0  0  0
   13.7776   49.9456  135.2316 C   0  0  0  0  0  0  0  0  0  0  0  0
  1  2  1  0  0  0
  2  3  2  0  0  0
  3  4  1  0  0  0
  4  5  2  0  0  0
  5  8  1  0  0  0
  8  9  1  0  0  0
  9 10  2  0  0  0
  9 12  1  0  0  0
 12 13  2  0  0  0
 13 14  1  0  0  0
 14 15  2  0  0  0
 15 16  1  0  0  0
 16 17  2  0  0  0
 16 18  1  0  0  0
 18 19  1  0  0  0
 18 20  1  0  0  0
 18 21  1  0  0  0
  5  6  1  0  0  0
  6  7  2  0  0  0
  7 22  1  0  0  0
 22 23  2  0  0  0
 22 24  1  0  0  0
 24 26  1  0  0  0
 26 27  2  0  0  0
 27 28  1  0  0  0
 28 29  2  0  0  0
 29 30  1  0  0  0
 30 31  2  0  0  0
 30 32  1  0  0  0
 32 33  2  0  0  0
 32 34  1  0  0  0
 34 36  1  0  0  0
 36 37  1  0  0  0
 36 38  1  0  0  0
 36 39  1  0  0  0
  7  2  1  0  0  0
 31 26  1  0  0  0
 17 12  1  0  0  0
  8 11  1  0  0  0
 24 25  1  0  0  0
 34 35  1  0  0  0
M  END
> <minimizedAffinity>
18.94805

> <CNNscore>
0.5291279554

> <CNNaffinity>
7.1224036217

> <CNN_VS>
3.7686629295

> <CNNaffinity_variance>
1.5474952459

$$$$
[H]c1nc(C(F)(F)F)c([H])c(C(=O)N([H])c2c([H])c([H])c(C([H])([H])[H])c(C(=O)N([H])c3c([H])c([H])c([H])c(C(=O)N([H])C(C([H])([H])[H])(C([H])([H])[H])C([H])([H])[H])c3[H])c2[H])c1[H]


 39 41  0  0  0  0  0  0  0  0999 V2000
    9.6717   46.6725  126.1953 C   0  0  0  0  0  0  0  0  0  0  0  0
    9.9182   46.0533  127.5165 C   0  0  0  0  0  0  0  0  0  0  0  0
   10.8298   45.0054  127.6762 C   0  0  0  0  0  0  0  0  0  0  0  0
   11.0527   44.4337  128.9321 C   0  0  0  0  0  0  0  0  0  0  0  0
   10.3777   44.8968  130.0234 C   0  0  0  0  0  0  0  0  0  0  0  0
    9.4653   45.9530  129.8281 C   0  0  0  0  0  0  0  0  0  0  0  0
    9.2440   46.5156  128.6078 C   0  0  0  0  0  0  0  0  0  0  0  0
   10.5796   44.4241  131.3423 N   0  0  0  0  0  0  0  0  0  0  0  0
   11.2673   45.1608  132.3157 C   0  0  0  0  0  0  0  0  0  0  0  0
   11.7396   46.2818  132.0833 O   0  0  0  0  0  0  0  0  0  0  0  0
   10.1692   43.4576  131.5607 H   0  0  0  0  0  0  0  0  0  0  0  0
   11.4340   44.5965  133.6556 C   0  0  0  0  0  0  0  0  0  0  0  0
   12.2927   43.5584  133.9385 C   0  0  0  0  0  0  0  0  0  0  0  0
   12.3538   43.0925  135.2560 C   0  0  0  0  0  0  0  0  0  0  0  0
   11.6137   43.6125  136.2497 N   0  0  0  0  0  0  0  0  0  0  0  0
   10.7660   44.6266  136.0035 C   0  0  0  0  0  0  0  0  0  0  0  0
   10.6886   45.0984  134.7275 C   0  0  0  0  0  0  0  0  0  0  0  0
    9.9184   45.2234  137.0932 C   0  0  0  0  0  0  0  0  0  0  0  0
    9.8405   46.5828  137.0022 F   0  0  0  0  0  0  0  0  0  0  0  0
    8.7214   44.5759  137.1558 F   0  0  0  0  0  0  0  0  0  0  0  0
   10.6017   44.9218  138.2831 F   0  0  0  0  0  0  0  0  0  0  0  0
    8.3111   47.6395  128.5088 C   0  0  0  0  0  0  0  0  0  0  0  0
    7.3648   47.6103  127.6636 O   0  0  0  0  0  0  0  0  0  0  0  0
    8.4237   48.7812  129.3307 N   0  0  0  0  0  0  0  0  0  0  0  0
    9.2094   48.7654  130.0447 H   0  0  0  0  0  0  0  0  0  0  0  0
    7.6062   49.9202  129.2916 C   0  0  0  0  0  0  0  0  0  0  0  0
    6.6667   50.0823  130.2971 C   0  0  0  0  0  0  0  0  0  0  0  0
    5.8855   51.2192  130.3309 C   0  0  0  0  0  0  0  0  0  0  0  0
    6.0421   52.1976  129.3586 C   0  0  0  0  0  0  0  0  0  0  0  0
    6.9576   52.0734  128.3511 C   0  0  0  0  0  0  0  0  0  0  0  0
    7.7398   50.9111  128.3366 C   0  0  0  0  0  0  0  0  0  0  0  0
    7.2008   53.0811  127.3099 C   0  0  0  0  0  0  0  0  0  0  0  0
    7.0720   54.3217  127.6076 O   0  0  0  0  0  0  0  0  0  0  0  0
    7.5656   52.7537  125.9889 N   0  0  0  0  0  0  0  0  0  0  0  0
    7.6777   51.7468  125.7555 H   0  0  0  0  0  0  0  0  0  0  0  0
    7.7771   53.7617  124.9898 C   0  0  0  0  0  0  0  0  0  0  0  0
    6.5780   54.6616  124.7748 C   0  0  0  0  0  0  0  0  0  0  0  0
    8.9496   54.6610  125.3198 C   0  0  0  0  0  0  0  0  0  0  0  0
    8.0092   53.0740  123.6341 C   0  0  0  0  0  0  0  0  0  0  0  0
  1  2  1  0  0  0
  2  3  2  0  0  0
  3  4  1  0  0  0
  4  5  2  0  0  0
  5  8  1  0  0  0
  8  9  1  0  0  0
  9 10  2  0  0  0
  9 12  1  0  0  0
 12 13  2  0  0  0
 13 14  1  0  0  0
 14 15  2  0  0  0
 15 16  1  0  0  0
 16 17  2  0  0  0
 16 18  1  0  0  0
 18 19  1  0  0  0
 18 20  1  0  0  0
 18 21  1  0  0  0
  5  6  1  0  0  0
  6  7  2  0  0  0
  7 22  1  0  0  0
 22 23  2  0  0  0
 22 24  1  0  0  0
 24 26  1  0  0  0
 26 27  2  0  0  0
 27 28  1  0  0  0
 28 29  2  0  0  0
 29 30  1  0  0  0
 30 31  2  0  0  0
 30 32  1  0  0  0
 32 33  2  0  0  0
 32 34  1  0  0  0
 34 36  1  0  0  0
 36 37  1  0  0  0
 36 38  1  0  0  0
 36 39  1  0  0  0
  7  2  1  0  0  0
 31 26  1  0  0  0
 17 12  1  0  0  0
  8 11  1  0  0  0
 24 25  1  0  0  0
 34 35  1  0  0  0
M  END
> <minimizedAffinity>
17.70812

> <CNNscore>
0.5115538239

> <CNNaffinity>
7.1986465454

> <CNN_VS>
3.6824951172

> <CNNaffinity_variance>
1.7466026545

$$$$
[H]c1nc(C(F)(F)F)c([H])c(C(=O)N([H])c2c([H])c([H])c(C([H])([H])[H])c(C(=O)N([H])c3c([H])c([H])c([H])c(C(=O)N([H])C(C([H])([H])[H])(C([H])([H])[H])C([H])([H])[H])c3[H])c2[H])c1[H]


 39 41  0  0  0  0  0  0  0  0999 V2000
    5.3335   47.6248  128.8934 C   0  0  0  0  0  0  0  0  0  0  0  0
    6.3685   47.0865  129.8037 C   0  0  0  0  0  0  0  0  0  0  0  0
    6.4787   45.7165  130.0600 C   0  0  0  0  0  0  0  0  0  0  0  0
    7.4641   45.2246  130.9206 C   0  0  0  0  0  0  0  0  0  0  0  0
    8.3356   46.0836  131.5237 C   0  0  0  0  0  0  0  0  0  0  0  0
    8.1968   47.4581  131.2453 C   0  0  0  0  0  0  0  0  0  0  0  0
    7.2400   47.9443  130.4070 C   0  0  0  0  0  0  0  0  0  0  0  0
    9.4017   45.6762  132.3609 N   0  0  0  0  0  0  0  0  0  0  0  0
   10.6966   46.1999  132.2502 C   0  0  0  0  0  0  0  0  0  0  0  0
   10.9900   47.0623  131.4110 O   0  0  0  0  0  0  0  0  0  0  0  0
    9.1609   44.9352  133.0978 H   0  0  0  0  0  0  0  0  0  0  0  0
   11.7425   45.7210  133.1547 C   0  0  0  0  0  0  0  0  0  0  0  0
   11.9682   44.3878  133.4128 C   0  0  0  0  0  0  0  0  0  0  0  0
   12.9876   44.0523  134.3099 C   0  0  0  0  0  0  0  0  0  0  0  0
   13.7500   44.9714  134.9262 N   0  0  0  0  0  0  0  0  0  0  0  0
   13.5525   46.2808  134.6942 C   0  0  0  0  0  0  0  0  0  0  0  0
   12.5652   46.6332  133.8238 C   0  0  0  0  0  0  0  0  0  0  0  0
   14.3839   47.3328  135.3755 C   0  0  0  0  0  0  0  0  0  0  0  0
   15.2998   47.8940  134.5336 F   0  0  0  0  0  0  0  0  0  0  0  0
   13.5735   48.2155  136.0236 F   0  0  0  0  0  0  0  0  0  0  0  0
   15.0968   46.6384  136.3671 F   0  0  0  0  0  0  0  0  0  0  0  0
    7.2010   49.3836  130.1417 C   0  0  0  0  0  0  0  0  0  0  0  0
    7.1507   50.2084  131.1049 O   0  0  0  0  0  0  0  0  0  0  0  0
    7.2149   49.9042  128.8301 N   0  0  0  0  0  0  0  0  0  0  0  0
    7.2828   49.1909  128.0466 H   0  0  0  0  0  0  0  0  0  0  0  0
    7.1467   51.2581  128.4701 C   0  0  0  0  0  0  0  0  0  0  0  0
    6.6959   52.1623  129.4185 C   0  0  0  0  0  0  0  0  0  0  0  0
    6.6728   53.5105  129.1261 C   0  0  0  0  0  0  0  0  0  0  0  0
    7.1008   53.9583  127.8838 C   0  0  0  0  0  0  0  0  0  0  0  0
    7.5517   53.0973  126.9226 C   0  0  0  0  0  0  0  0  0  0  0  0
    7.5665   51.7330  127.2413 C   0  0  0  0  0  0  0  0  0  0  0  0
    8.0503   53.5019  125.6011 C   0  0  0  0  0  0  0  0  0  0  0  0
    9.1134   54.2158  125.5330 O   0  0  0  0  0  0  0  0  0  0  0  0
    7.4137   53.1491  124.3946 N   0  0  0  0  0  0  0  0  0  0  0  0
    6.5574   52.5626  124.4553 H   0  0  0  0  0  0  0  0  0  0  0  0
    7.9157   53.5771  123.1203 C   0  0  0  0  0  0  0  0  0  0  0  0
    8.9694   54.6606  123.2179 C   0  0  0  0  0  0  0  0  0  0  0  0
    8.5261   52.4383  122.3310 C   0  0  0  0  0  0  0  0  0  0  0  0
    6.7639   54.2101  122.3219 C   0  0  0  0  0  0  0  0  0  0  0  0
  1  2  1  0  0  0
  2  3  2  0  0  0
  3  4  1  0  0  0
  4  5  2  0  0  0
  5  8  1  0  0  0
  8  9  1  0  0  0
  9 10  2  0  0  0
  9 12  1  0  0  0
 12 13  2  0  0  0
 13 14  1  0  0  0
 14 15  2  0  0  0
 15 16  1  0  0  0
 16 17  2  0  0  0
 16 18  1  0  0  0
 18 19  1  0  0  0
 18 20  1  0  0  0
 18 21  1  0  0  0
  5  6  1  0  0  0
  6  7  2  0  0  0
  7 22  1  0  0  0
 22 23  2  0  0  0
 22 24  1  0  0  0
 24 26  1  0  0  0
 26 27  2  0  0  0
 27 28  1  0  0  0
 28 29  2  0  0  0
 29 30  1  0  0  0
 30 31  2  0  0  0
 30 32  1  0  0  0
 32 33  2  0  0  0
 32 34  1  0  0  0
 34 36  1  0  0  0
 36 37  1  0  0  0
 36 38  1  0  0  0
 36 39  1  0  0  0
  7  2  1  0  0  0
 31 26  1  0  0  0
 17 12  1  0  0  0
  8 11  1  0  0  0
 24 25  1  0  0  0
 34 35  1  0  0  0
M  END
> <minimizedAffinity>
18.05441

> <CNNscore>
0.5005575418

> <CNNaffinity>
6.7991724014

> <CNN_VS>
3.4033770561

> <CNNaffinity_variance>
1.3477208614

$$$$
[H]c1nc(C(F)(F)F)c([H])c(C(=O)N([H])c2c([H])c([H])c(C([H])([H])[H])c(C(=O)N([H])c3c([H])c([H])c([H])c(C(=O)N([H])C(C([H])([H])[H])(C([H])([H])[H])C([H])([H])[H])c3[H])c2[H])c1[H]


 39 41  0  0  0  0  0  0  0  0999 V2000
    9.6886   46.7772  126.4766 C   0  0  0  0  0  0  0  0  0  0  0  0
    9.8133   46.3554  127.8894 C   0  0  0  0  0  0  0  0  0  0  0  0
   10.6304   45.2850  128.2654 C   0  0  0  0  0  0  0  0  0  0  0  0
   10.7389   44.9014  129.6052 C   0  0  0  0  0  0  0  0  0  0  0  0
   10.0431   45.5736  130.5670 C   0  0  0  0  0  0  0  0  0  0  0  0
    9.2278   46.6466  130.1547 C   0  0  0  0  0  0  0  0  0  0  0  0
    9.1182   47.0266  128.8515 C   0  0  0  0  0  0  0  0  0  0  0  0
   10.1349   45.2988  131.9525 N   0  0  0  0  0  0  0  0  0  0  0  0
    9.8510   46.2551  132.9365 C   0  0  0  0  0  0  0  0  0  0  0  0
    9.4939   47.4068  132.6537 O   0  0  0  0  0  0  0  0  0  0  0  0
   10.4357   44.3029  132.2129 H   0  0  0  0  0  0  0  0  0  0  0  0
    9.9738   45.8885  134.3479 C   0  0  0  0  0  0  0  0  0  0  0  0
    9.4468   46.6398  135.3739 C   0  0  0  0  0  0  0  0  0  0  0  0
    9.6433   46.1959  136.6857 C   0  0  0  0  0  0  0  0  0  0  0  0
   10.3211   45.0744  136.9835 N   0  0  0  0  0  0  0  0  0  0  0  0
   10.8475   44.3206  136.0026 C   0  0  0  0  0  0  0  0  0  0  0  0
   10.6693   44.7321  134.7159 C   0  0  0  0  0  0  0  0  0  0  0  0
   11.6183   43.0651  136.3052 C   0  0  0  0  0  0  0  0  0  0  0  0
   11.8888   42.9320  137.6362 F   0  0  0  0  0  0  0  0  0  0  0  0
   11.0051   41.9947  135.7273 F   0  0  0  0  0  0  0  0  0  0  0  0
   12.8461   43.2312  135.6429 F   0  0  0  0  0  0  0  0  0  0  0  0
    8.2826   48.1828  128.5226 C   0  0  0  0  0  0  0  0  0  0  0  0
    7.5564   48.1693  127.4818 O   0  0  0  0  0  0  0  0  0  0  0  0
    8.2515   49.3390  129.3312 N   0  0  0  0  0  0  0  0  0  0  0  0
    8.8498   49.3105  130.2078 H   0  0  0  0  0  0  0  0  0  0  0  0
    7.5148   50.5072  129.0869 C   0  0  0  0  0  0  0  0  0  0  0  0
    6.5162   50.8472  129.9855 C   0  0  0  0  0  0  0  0  0  0  0  0
    5.8101   52.0206  129.8166 C   0  0  0  0  0  0  0  0  0  0  0  0
    6.1012   52.8576  128.7480 C   0  0  0  0  0  0  0  0  0  0  0  0
    7.0784   52.5562  127.8410 C   0  0  0  0  0  0  0  0  0  0  0  0
    7.7824   51.3601  128.0321 C   0  0  0  0  0  0  0  0  0  0  0  0
    7.4626   53.4088  126.7076 C   0  0  0  0  0  0  0  0  0  0  0  0
    7.6549   54.6600  126.9121 O   0  0  0  0  0  0  0  0  0  0  0  0
    7.6268   52.9213  125.3958 N   0  0  0  0  0  0  0  0  0  0  0  0
    7.4787   51.9045  125.2376 H   0  0  0  0  0  0  0  0  0  0  0  0
    7.9840   53.7845  124.3065 C   0  0  0  0  0  0  0  0  0  0  0  0
    8.4692   53.0410  123.0794 C   0  0  0  0  0  0  0  0  0  0  0  0
    6.8303   54.6595  123.8644 C   0  0  0  0  0  0  0  0  0  0  0  0
    9.1713   54.6611  124.7385 C   0  0  0  0  0  0  0  0  0  0  0  0
  1  2  1  0  0  0
  2  3  2  0  0  0
  3  4  1  0  0  0
  4  5  2  0  0  0
  5  8  1  0  0  0
  8  9  1  0  0  0
  9 10  2  0  0  0
  9 12  1  0  0  0
 12 13  2  0  0  0
 13 14  1  0  0  0
 14 15  2  0  0  0
 15 16  1  0  0  0
 16 17  2  0  0  0
 16 18  1  0  0  0
 18 19  1  0  0  0
 18 20  1  0  0  0
 18 21  1  0  0  0
  5  6  1  0  0  0
  6  7  2  0  0  0
  7 22  1  0  0  0
 22 23  2  0  0  0
 22 24  1  0  0  0
 24 26  1  0  0  0
 26 27  2  0  0  0
 27 28  1  0  0  0
 28 29  2  0  0  0
 29 30  1  0  0  0
 30 31  2  0  0  0
 30 32  1  0  0  0
 32 33  2  0  0  0
 32 34  1  0  0  0
 34 36  1  0  0  0
 36 37  1  0  0  0
 36 38  1  0  0  0
 36 39  1  0  0  0
  7  2  1  0  0  0
 31 26  1  0  0  0
 17 12  1  0  0  0
  8 11  1  0  0  0
 24 25  1  0  0  0
 34 35  1  0  0  0
M  END
> <minimizedAffinity>
18.62623

> <CNNscore>
0.4998393059

> <CNNaffinity>
7.2200536728

> <CNN_VS>
3.6088666916

> <CNNaffinity_variance>
1.9573166370

$$$$
[H]c1nc(C(F)(F)F)c([H])c(C(=O)N([H])c2c([H])c([H])c(C([H])([H])[H])c(C(=O)N([H])c3c([H])c([H])c([H])c(C(=O)N([H])C(C([H])([H])[H])(C([H])([H])[H])C([H])([H])[H])c3[H])c2[H])c1[H]


 39 41  0  0  0  0  0  0  0  0999 V2000
   10.1319   44.1600  128.7044 C   0  0  0  0  0  0  0  0  0  0  0  0
   10.8175   44.7111  129.8944 C   0  0  0  0  0  0  0  0  0  0  0  0
   12.0015   44.1507  130.3832 C   0  0  0  0  0  0  0  0  0  0  0  0
   12.6377   44.6855  131.5070 C   0  0  0  0  0  0  0  0  0  0  0  0
   12.1055   45.7688  132.1429 C   0  0  0  0  0  0  0  0  0  0  0  0
   10.9110   46.3088  131.6257 C   0  0  0  0  0  0  0  0  0  0  0  0
   10.2863   45.7938  130.5306 C   0  0  0  0  0  0  0  0  0  0  0  0
   12.7072   46.4162  133.2484 N   0  0  0  0  0  0  0  0  0  0  0  0
   12.0234   47.3372  134.0531 C   0  0  0  0  0  0  0  0  0  0  0  0
   10.8399   47.6401  133.8497 O   0  0  0  0  0  0  0  0  0  0  0  0
   13.7300   46.1581  133.4417 H   0  0  0  0  0  0  0  0  0  0  0  0
   12.7218   47.9639  135.1762 C   0  0  0  0  0  0  0  0  0  0  0  0
   12.3077   49.1368  135.7657 C   0  0  0  0  0  0  0  0  0  0  0  0
   13.0674   49.6486  136.8228 C   0  0  0  0  0  0  0  0  0  0  0  0
   14.1774   49.0468  137.2829 N   0  0  0  0  0  0  0  0  0  0  0  0
   14.6063   47.9006  136.7267 C   0  0  0  0  0  0  0  0  0  0  0  0
   13.8829   47.3817  135.6951 C   0  0  0  0  0  0  0  0  0  0  0  0
   15.8495   47.2086  137.2141 C   0  0  0  0  0  0  0  0  0  0  0  0
   16.1104   46.0632  136.5195 F   0  0  0  0  0  0  0  0  0  0  0  0
   16.8800   48.0975  137.2764 F   0  0  0  0  0  0  0  0  0  0  0  0
   15.5571   46.8384  138.5374 F   0  0  0  0  0  0  0  0  0  0  0  0
    9.0737   46.4495  130.0376 C   0  0  0  0  0  0  0  0  0  0  0  0
    8.1200   45.7564  129.5678 O   0  0  0  0  0  0  0  0  0  0  0  0
    8.9181   47.8519  130.0610 N   0  0  0  0  0  0  0  0  0  0  0  0
    9.7218   48.4028  130.4828 H   0  0  0  0  0  0  0  0  0  0  0  0
    7.8157   48.5761  129.5840 C   0  0  0  0  0  0  0  0  0  0  0  0
    6.5741   47.9612  129.6047 C   0  0  0  0  0  0  0  0  0  0  0  0
    5.4543   48.6603  129.2031 C   0  0  0  0  0  0  0  0  0  0  0  0
    5.5733   49.9770  128.7798 C   0  0  0  0  0  0  0  0  0  0  0  0
    6.7806   50.6173  128.7451 C   0  0  0  0  0  0  0  0  0  0  0  0
    7.9039   49.8883  129.1572 C   0  0  0  0  0  0  0  0  0  0  0  0
    6.9767   52.0164  128.3415 C   0  0  0  0  0  0  0  0  0  0  0  0
    6.9686   52.9274  129.2438 O   0  0  0  0  0  0  0  0  0  0  0  0
    7.1690   52.4141  127.0035 N   0  0  0  0  0  0  0  0  0  0  0  0
    7.1838   51.6704  126.2772 H   0  0  0  0  0  0  0  0  0  0  0  0
    7.3383   53.7919  126.6400 C   0  0  0  0  0  0  0  0  0  0  0  0
    6.0352   54.5032  126.3405 C   0  0  0  0  0  0  0  0  0  0  0  0
    8.0380   54.5895  127.7202 C   0  0  0  0  0  0  0  0  0  0  0  0
    8.1428   53.8632  125.3314 C   0  0  0  0  0  0  0  0  0  0  0  0
  1  2  1  0  0  0
  2  3  2  0  0  0
  3  4  1  0  0  0
  4  5  2  0  0  0
  5  8  1  0  0  0
  8  9  1  0  0  0
  9 10  2  0  0  0
  9 12  1  0  0  0
 12 13  2  0  0  0
 13 14  1  0  0  0
 14 15  2  0  0  0
 15 16  1  0  0  0
 16 17  2  0  0  0
 16 18  1  0  0  0
 18 19  1  0  0  0
 18 20  1  0  0  0
 18 21  1  0  0  0
  5  6  1  0  0  0
  6  7  2  0  0  0
  7 22  1  0  0  0
 22 23  2  0  0  0
 22 24  1  0  0  0
 24 26  1  0  0  0
 26 27  2  0  0  0
 27 28  1  0  0  0
 28 29  2  0  0  0
 29 30  1  0  0  0
 30 31  2  0  0  0
 30 32  1  0  0  0
 32 33  2  0  0  0
 32 34  1  0  0  0
 34 36  1  0  0  0
 36 37  1  0  0  0
 36 38  1  0  0  0
 36 39  1  0  0  0
  7  2  1  0  0  0
 31 26  1  0  0  0
 17 12  1  0  0  0
  8 11  1  0  0  0
 24 25  1  0  0  0
 34 35  1  0  0  0
M  END
> <minimizedAffinity>
18.25022

> <CNNscore>
0.4739569426

> <CNNaffinity>
7.1583237648

> <CNN_VS>
3.3927371502

> <CNNaffinity_variance>
1.0922390223

$$$$
[H]c1nc(C(F)(F)F)c([H])c(C(=O)N([H])c2c([H])c([H])c(C([H])([H])[H])c(C(=O)N([H])c3c([H])c([H])c([H])c(C(=O)N([H])C(C([H])([H])[H])(C([H])([H])[H])C([H])([H])[H])c3[H])c2[H])c1[H]


 39 41  0  0  0  0  0  0  0  0999 V2000
   10.0984   47.0722  126.3417 C   0  0  0  0  0  0  0  0  0  0  0  0
   10.1743   46.2052  127.5384 C   0  0  0  0  0  0  0  0  0  0  0  0
   10.6750   44.9017  127.4686 C   0  0  0  0  0  0  0  0  0  0  0  0
   10.7422   44.0970  128.6096 C   0  0  0  0  0  0  0  0  0  0  0  0
   10.3167   44.5798  129.8125 C   0  0  0  0  0  0  0  0  0  0  0  0
    9.8164   45.8968  129.8483 C   0  0  0  0  0  0  0  0  0  0  0  0
    9.7492   46.6869  128.7411 C   0  0  0  0  0  0  0  0  0  0  0  0
   10.4010   43.8641  131.0308 N   0  0  0  0  0  0  0  0  0  0  0  0
    9.2934   43.6447  131.8604 C   0  0  0  0  0  0  0  0  0  0  0  0
    8.1624   44.0609  131.5750 O   0  0  0  0  0  0  0  0  0  0  0  0
   11.3730   43.4908  131.2876 H   0  0  0  0  0  0  0  0  0  0  0  0
    9.4686   42.8961  133.1057 C   0  0  0  0  0  0  0  0  0  0  0  0
    8.7780   41.7420  133.3988 C   0  0  0  0  0  0  0  0  0  0  0  0
    9.0186   41.1232  134.6300 C   0  0  0  0  0  0  0  0  0  0  0  0
    9.8896   41.6061  135.5323 N   0  0  0  0  0  0  0  0  0  0  0  0
   10.5780   42.7316  135.2740 C   0  0  0  0  0  0  0  0  0  0  0  0
   10.3613   43.3529  134.0808 C   0  0  0  0  0  0  0  0  0  0  0  0
   11.5531   43.3008  136.2676 C   0  0  0  0  0  0  0  0  0  0  0  0
   11.9340   42.3830  137.2030 F   0  0  0  0  0  0  0  0  0  0  0  0
   12.5743   43.9197  135.6117 F   0  0  0  0  0  0  0  0  0  0  0  0
   10.8359   44.3071  136.9360 F   0  0  0  0  0  0  0  0  0  0  0  0
    9.2574   48.0585  128.8831 C   0  0  0  0  0  0  0  0  0  0  0  0
   10.0743   49.0140  129.0569 O   0  0  0  0  0  0  0  0  0  0  0  0
    7.8817   48.3697  128.8360 N   0  0  0  0  0  0  0  0  0  0  0  0
    7.2251   47.5533  128.6643 H   0  0  0  0  0  0  0  0  0  0  0  0
    7.3088   49.6401  128.9945 C   0  0  0  0  0  0  0  0  0  0  0  0
    6.5661   49.8815  130.1392 C   0  0  0  0  0  0  0  0  0  0  0  0
    6.0380   51.1362  130.3639 C   0  0  0  0  0  0  0  0  0  0  0  0
    6.2515   52.1536  129.4439 C   0  0  0  0  0  0  0  0  0  0  0  0
    6.9781   51.9541  128.3033 C   0  0  0  0  0  0  0  0  0  0  0  0
    7.5048   50.6724  128.0958 C   0  0  0  0  0  0  0  0  0  0  0  0
    7.2721   52.9903  127.3040 C   0  0  0  0  0  0  0  0  0  0  0  0
    7.3900   54.2071  127.6911 O   0  0  0  0  0  0  0  0  0  0  0  0
    7.4271   52.7165  125.9306 N   0  0  0  0  0  0  0  0  0  0  0  0
    7.3396   51.7270  125.6237 H   0  0  0  0  0  0  0  0  0  0  0  0
    7.6947   53.7548  124.9770 C   0  0  0  0  0  0  0  0  0  0  0  0
    6.5080   54.6598  124.7187 C   0  0  0  0  0  0  0  0  0  0  0  0
    8.8433   54.6445  125.4031 C   0  0  0  0  0  0  0  0  0  0  0  0
    8.0085   53.1090  123.6171 C   0  0  0  0  0  0  0  0  0  0  0  0
  1  2  1  0  0  0
  2  3  2  0  0  0
  3  4  1  0  0  0
  4  5  2  0  0  0
  5  8  1  0  0  0
  8  9  1  0  0  0
  9 10  2  0  0  0
  9 12  1  0  0  0
 12 13  2  0  0  0
 13 14  1  0  0  0
 14 15  2  0  0  0
 15 16  1  0  0  0
 16 17  2  0  0  0
 16 18  1  0  0  0
 18 19  1  0  0  0
 18 20  1  0  0  0
 18 21  1  0  0  0
  5  6  1  0  0  0
  6  7  2  0  0  0
  7 22  1  0  0  0
 22 23  2  0  0  0
 22 24  1  0  0  0
 24 26  1  0  0  0
 26 27  2  0  0  0
 27 28  1  0  0  0
 28 29  2  0  0  0
 29 30  1  0  0  0
 30 31  2  0  0  0
 30 32  1  0  0  0
 32 33  2  0  0  0
 32 34  1  0  0  0
 34 36  1  0  0  0
 36 37  1  0  0  0
 36 38  1  0  0  0
 36 39  1  0  0  0
  7  2  1  0  0  0
 31 26  1  0  0  0
 17 12  1  0  0  0
  8 11  1  0  0  0
 24 25  1  0  0  0
 34 35  1  0  0  0
M  END
> <minimizedAffinity>
19.59218

> <CNNscore>
0.4527377188

> <CNNaffinity>
6.7054610252

> <CNN_VS>
3.0358152390

> <CNNaffinity_variance>
0.5473064184

$$$$
[H]c1nc(C(F)(F)F)c([H])c(C(=O)N([H])c2c([H])c([H])c(C([H])([H])[H])c(C(=O)N([H])c3c([H])c([H])c([H])c(C(=O)N([H])C(C([H])([H])[H])(C([H])([H])[H])C([H])([H])[H])c3[H])c2[H])c1[H]


 39 41  0  0  0  0  0  0  0  0999 V2000
    8.6866   47.1235  134.3748 C   0  0  0  0  0  0  0  0  0  0  0  0
    9.7859   46.5296  133.5820 C   0  0  0  0  0  0  0  0  0  0  0  0
   10.8842   45.9186  134.1945 C   0  0  0  0  0  0  0  0  0  0  0  0
   11.9127   45.3600  133.4304 C   0  0  0  0  0  0  0  0  0  0  0  0
   11.8544   45.4056  132.0682 C   0  0  0  0  0  0  0  0  0  0  0  0
   10.7348   46.0296  131.4824 C   0  0  0  0  0  0  0  0  0  0  0  0
    9.7285   46.5748  132.2204 C   0  0  0  0  0  0  0  0  0  0  0  0
   12.8147   44.8161  131.2115 N   0  0  0  0  0  0  0  0  0  0  0  0
   12.6258   44.6959  129.8284 C   0  0  0  0  0  0  0  0  0  0  0  0
   11.6024   45.1060  129.2641 O   0  0  0  0  0  0  0  0  0  0  0  0
   13.7098   44.4631  131.6850 H   0  0  0  0  0  0  0  0  0  0  0  0
   13.6689   44.0701  129.0149 C   0  0  0  0  0  0  0  0  0  0  0  0
   14.9622   43.8894  129.4504 C   0  0  0  0  0  0  0  0  0  0  0  0
   15.8763   43.2931  128.5754 C   0  0  0  0  0  0  0  0  0  0  0  0
   15.5463   42.8928  127.3358 N   0  0  0  0  0  0  0  0  0  0  0  0
   14.2912   43.0568  126.8828 C   0  0  0  0  0  0  0  0  0  0  0  0
   13.3820   43.6353  127.7168 C   0  0  0  0  0  0  0  0  0  0  0  0
   13.8942   42.6269  125.4974 C   0  0  0  0  0  0  0  0  0  0  0  0
   14.5950   43.2868  124.5300 F   0  0  0  0  0  0  0  0  0  0  0  0
   13.9210   41.2677  125.4088 F   0  0  0  0  0  0  0  0  0  0  0  0
   12.5484   43.0114  125.3756 F   0  0  0  0  0  0  0  0  0  0  0  0
    8.5822   47.1616  131.5241 C   0  0  0  0  0  0  0  0  0  0  0  0
    7.4382   46.6186  131.6092 O   0  0  0  0  0  0  0  0  0  0  0  0
    8.6986   48.3308  130.7425 N   0  0  0  0  0  0  0  0  0  0  0  0
    9.6620   48.7759  130.7110 H   0  0  0  0  0  0  0  0  0  0  0  0
    7.6742   48.9504  130.0119 C   0  0  0  0  0  0  0  0  0  0  0  0
    6.4708   48.2766  129.8776 C   0  0  0  0  0  0  0  0  0  0  0  0
    5.4166   48.8771  129.2204 C   0  0  0  0  0  0  0  0  0  0  0  0
    5.5632   50.1539  128.6957 C   0  0  0  0  0  0  0  0  0  0  0  0
    6.7343   50.8499  128.8078 C   0  0  0  0  0  0  0  0  0  0  0  0
    7.7911   50.2208  129.4789 C   0  0  0  0  0  0  0  0  0  0  0  0
    6.9503   52.2145  128.3076 C   0  0  0  0  0  0  0  0  0  0  0  0
    6.9282   53.1893  129.1404 O   0  0  0  0  0  0  0  0  0  0  0  0
    7.1765   52.5119  126.9490 N   0  0  0  0  0  0  0  0  0  0  0  0
    7.2026   51.7168  126.2796 H   0  0  0  0  0  0  0  0  0  0  0  0
    7.3647   53.8583  126.4898 C   0  0  0  0  0  0  0  0  0  0  0  0
    8.2639   53.9634  125.2756 C   0  0  0  0  0  0  0  0  0  0  0  0
    6.0569   54.5308  126.1296 C   0  0  0  0  0  0  0  0  0  0  0  0
    8.0813   54.6604  127.5888 C   0  0  0  0  0  0  0  0  0  0  0  0
  1  2  1  0  0  0
  2  3  2  0  0  0
  3  4  1  0  0  0
  4  5  2  0  0  0
  5  8  1  0  0  0
  8  9  1  0  0  0
  9 10  2  0  0  0
  9 12  1  0  0  0
 12 13  2  0  0  0
 13 14  1  0  0  0
 14 15  2  0  0  0
 15 16  1  0  0  0
 16 17  2  0  0  0
 16 18  1  0  0  0
 18 19  1  0  0  0
 18 20  1  0  0  0
 18 21  1  0  0  0
  5  6  1  0  0  0
  6  7  2  0  0  0
  7 22  1  0  0  0
 22 23  2  0  0  0
 22 24  1  0  0  0
 24 26  1  0  0  0
 26 27  2  0  0  0
 27 28  1  0  0  0
 28 29  2  0  0  0
 29 30  1  0  0  0
 30 31  2  0  0  0
 30 32  1  0  0  0
 32 33  2  0  0  0
 32 34  1  0  0  0
 34 36  1  0  0  0
 36 37  1  0  0  0
 36 38  1  0  0  0
 36 39  1  0  0  0
  7  2  1  0  0  0
 31 26  1  0  0  0
 17 12  1  0  0  0
  8 11  1  0  0  0
 24 25  1  0  0  0
 34 35  1  0  0  0
M  END
> <minimizedAffinity>
18.72546

> <CNNscore>
0.4038023055

> <CNNaffinity>
6.8525075912

> <CNN_VS>
2.7670583725

> <CNNaffinity_variance>
0.4234207273

$$$$
[H]c1nc(C(F)(F)F)c([H])c(C(=O)N([H])c2c([H])c([H])c(C([H])([H])[H])c(C(=O)N([H])c3c([H])c([H])c([H])c(C(=O)N([H])C(C([H])([H])[H])(C([H])([H])[H])C([H])([H])[H])c3[H])c2[H])c1[H]


 39 41  0  0  0  0  0  0  0  0999 V2000
    9.7962   49.5361  131.8004 C   0  0  0  0  0  0  0  0  0  0  0  0
    8.6505   50.0264  131.0027 C   0  0  0  0  0  0  0  0  0  0  0  0
    8.2433   51.3631  131.0496 C   0  0  0  0  0  0  0  0  0  0  0  0
    7.1604   51.8103  130.2872 C   0  0  0  0  0  0  0  0  0  0  0  0
    6.4848   50.9397  129.4830 C   0  0  0  0  0  0  0  0  0  0  0  0
    6.9197   49.5995  129.4596 C   0  0  0  0  0  0  0  0  0  0  0  0
    7.9746   49.1570  130.1986 C   0  0  0  0  0  0  0  0  0  0  0  0
    5.4172   51.3103  128.6307 N   0  0  0  0  0  0  0  0  0  0  0  0
    4.1451   50.7283  128.7105 C   0  0  0  0  0  0  0  0  0  0  0  0
    3.8716   49.8515  129.5413 O   0  0  0  0  0  0  0  0  0  0  0  0
    5.6370   52.0743  127.9108 H   0  0  0  0  0  0  0  0  0  0  0  0
    3.0974   51.1680  127.7882 C   0  0  0  0  0  0  0  0  0  0  0  0
    1.8480   50.5929  127.7320 C   0  0  0  0  0  0  0  0  0  0  0  0
    0.9343   51.0889  126.7962 C   0  0  0  0  0  0  0  0  0  0  0  0
    1.2242   52.0962  125.9553 N   0  0  0  0  0  0  0  0  0  0  0  0
    2.4363   52.6770  125.9867 C   0  0  0  0  0  0  0  0  0  0  0  0
    3.3440   52.2116  126.8901 C   0  0  0  0  0  0  0  0  0  0  0  0
    2.7929   53.8004  125.0524 C   0  0  0  0  0  0  0  0  0  0  0  0
    1.7497   54.6570  124.8512 F   0  0  0  0  0  0  0  0  0  0  0  0
    3.9556   54.3855  125.4544 F   0  0  0  0  0  0  0  0  0  0  0  0
    3.0620   53.1725  123.8248 F   0  0  0  0  0  0  0  0  0  0  0  0
    8.3835   47.7567  130.0750 C   0  0  0  0  0  0  0  0  0  0  0  0
    7.9789   46.8976  130.9170 O   0  0  0  0  0  0  0  0  0  0  0  0
    9.2297   47.3121  129.0369 N   0  0  0  0  0  0  0  0  0  0  0  0
    9.5310   48.0486  128.3339 H   0  0  0  0  0  0  0  0  0  0  0  0
    9.7047   46.0056  128.8506 C   0  0  0  0  0  0  0  0  0  0  0  0
   10.1010   45.6322  127.5764 C   0  0  0  0  0  0  0  0  0  0  0  0
   10.6327   44.3771  127.3623 C   0  0  0  0  0  0  0  0  0  0  0  0
   10.7698   43.4917  128.4227 C   0  0  0  0  0  0  0  0  0  0  0  0
   10.3900   43.8235  129.6932 C   0  0  0  0  0  0  0  0  0  0  0  0
    9.8528   45.1028  129.8873 C   0  0  0  0  0  0  0  0  0  0  0  0
   10.5361   42.9518  130.8669 C   0  0  0  0  0  0  0  0  0  0  0  0
   10.8392   41.7188  130.6878 O   0  0  0  0  0  0  0  0  0  0  0  0
   10.3537   43.4013  132.1898 N   0  0  0  0  0  0  0  0  0  0  0  0
   10.1171   44.4039  132.3297 H   0  0  0  0  0  0  0  0  0  0  0  0
   10.4847   42.5192  133.3141 C   0  0  0  0  0  0  0  0  0  0  0  0
    9.1600   42.1377  133.9415 C   0  0  0  0  0  0  0  0  0  0  0  0
   11.1895   41.2287  132.9532 C   0  0  0  0  0  0  0  0  0  0  0  0
   11.2591   43.2463  134.4260 C   0  0  0  0  0  0  0  0  0  0  0  0
  1  2  1  0  0  0
  2  3  2  0  0  0
  3  4  1  0  0  0
  4  5  2  0  0  0
  5  8  1  0  0  0
  8  9  1  0  0  0
  9 10  2  0  0  0
  9 12  1  0  0  0
 12 13  2  0  0  0
 13 14  1  0  0  0
 14 15  2  0  0  0
 15 16  1  0  0  0
 16 17  2  0  0  0
 16 18  1  0  0  0
 18 19  1  0  0  0
 18 20  1  0  0  0
 18 21  1  0  0  0
  5  6  1  0  0  0
  6  7  2  0  0  0
  7 22  1  0  0  0
 22 23  2  0  0  0
 22 24  1  0  0  0
 24 26  1  0  0  0
 26 27  2  0  0  0
 27 28  1  0  0  0
 28 29  2  0  0  0
 29 30  1  0  0  0
 30 31  2  0  0  0
 30 32  1  0  0  0
 32 33  2  0  0  0
 32 34  1  0  0  0
 34 36  1  0  0  0
 36 37  1  0  0  0
 36 38  1  0  0  0
 36 39  1  0  0  0
  7  2  1  0  0  0
 31 26  1  0  0  0
 17 12  1  0  0  0
  8 11  1  0  0  0
 24 25  1  0  0  0
 34 35  1  0  0  0
M  END
> <minimizedAffinity>
16.23801

> <CNNscore>
0.3438954055

> <CNNaffinity>
6.7018127441

> <CNN_VS>
2.3047225475

> <CNNaffinity_variance>
0.9107593298

$$$$
[H]OC(=O)C([H])([H])[C@@]([H])(C(=O)N([H])C([H])(C([H])([H])O[H])C([H])([H])O[H])N([H])C(=O)[C@@]1([H])C([H])([H])[C@]([H])(C(=O)N([H])C([H])([H])C(=O)N([H])[C@]([H])(C(=O)O[H])C([H])([H])c2c([H])c([H])c(O[H])c([H])c2[H])N([H])[C@]1([H])C([H])([H])OC([H])([H])C([H])([H])N(C([H])([H])C([H])([H])[H])C([H])([H])C([H])([H])[H]


 59 60  0  0  0  0  0  0  0  0999 V2000
   11.6444   44.4546  133.9680 C   0  0  0  0  0  0  0  0  0  0  0  0
   12.3386   43.5338  134.8850 N   0  0  0  0  0  0  0  0  0  0  0  0
   11.4138   43.4384  135.9866 C   0  0  0  0  0  0  0  0  0  0  0  0
   10.8374   44.8155  136.1470 C   0  0  0  0  0  0  0  0  0  0  0  0
   11.2006   45.5540  134.8886 C   0  0  0  0  0  0  0  0  0  0  0  0
   12.4266   42.5848  134.4193 H   0  0  0  0  0  0  0  0  0  0  0  0
   12.1247   43.0144  137.2409 C   0  0  0  0  0  0  0  0  0  0  0  0
   11.5646   43.1826  138.3539 O   0  0  0  0  0  0  0  0  0  0  0  0
   13.4131   42.4387  137.1100 N   0  0  0  0  0  0  0  0  0  0  0  0
   13.8701   42.3104  136.1975 H   0  0  0  0  0  0  0  0  0  0  0  0
   14.1020   42.0202  138.3082 C   0  0  0  0  0  0  0  0  0  0  0  0
   15.5494   41.8613  138.1206 C   0  0  0  0  0  0  0  0  0  0  0  0
   16.0827   42.3348  137.0860 O   0  0  0  0  0  0  0  0  0  0  0  0
   16.3285   41.1840  139.0970 N   0  0  0  0  0  0  0  0  0  0  0  0
   15.8861   40.7805  139.9502 H   0  0  0  0  0  0  0  0  0  0  0  0
   17.7966   41.0293  138.9291 C   0  0  0  0  0  0  0  0  0  0  0  0
   18.4114   42.3239  138.6390 C   0  0  0  0  0  0  0  0  0  0  0  0
   18.0125   43.4662  139.2984 O   0  0  0  0  0  0  0  0  0  0  0  0
   19.3188   42.4139  137.7756 O   0  0  0  0  0  0  0  0  0  0  0  0
   17.1490   43.9655  139.1109 H   0  0  0  0  0  0  0  0  0  0  0  0
   17.9901   39.9565  137.9155 C   0  0  0  0  0  0  0  0  0  0  0  0
   17.4394   38.6297  138.2543 C   0  0  0  0  0  0  0  0  0  0  0  0
   18.1597   37.7675  139.1010 C   0  0  0  0  0  0  0  0  0  0  0  0
   17.6955   36.5300  139.4642 C   0  0  0  0  0  0  0  0  0  0  0  0
   16.4810   36.0617  139.0107 C   0  0  0  0  0  0  0  0  0  0  0  0
   16.0193   34.7873  139.3928 O   0  0  0  0  0  0  0  0  0  0  0  0
   15.7541   36.8842  138.1806 C   0  0  0  0  0  0  0  0  0  0  0  0
   16.2305   38.1402  137.8148 C   0  0  0  0  0  0  0  0  0  0  0  0
   15.4634   34.7208  140.2310 H   0  0  0  0  0  0  0  0  0  0  0  0
   10.0874   46.2970  134.2731 C   0  0  0  0  0  0  0  0  0  0  0  0
    8.9041   45.9187  134.4527 O   0  0  0  0  0  0  0  0  0  0  0  0
   10.3437   47.4273  133.4805 N   0  0  0  0  0  0  0  0  0  0  0  0
   11.3044   47.7605  133.3324 H   0  0  0  0  0  0  0  0  0  0  0  0
    9.2414   48.1857  132.8272 C   0  0  0  0  0  0  0  0  0  0  0  0
    8.5037   47.2512  131.9691 C   0  0  0  0  0  0  0  0  0  0  0  0
    7.2951   47.4991  131.6683 O   0  0  0  0  0  0  0  0  0  0  0  0
    9.0846   46.0803  131.4539 N   0  0  0  0  0  0  0  0  0  0  0  0
   10.0706   45.8405  131.6469 H   0  0  0  0  0  0  0  0  0  0  0  0
    8.3374   45.1542  130.6096 C   0  0  0  0  0  0  0  0  0  0  0  0
    7.1687   45.9070  130.0284 C   0  0  0  0  0  0  0  0  0  0  0  0
    7.4805   46.4711  128.7927 O   0  0  0  0  0  0  0  0  0  0  0  0
    7.5742   47.4486  128.9511 H   0  0  0  0  0  0  0  0  0  0  0  0
    7.9264   43.9815  131.4698 C   0  0  0  0  0  0  0  0  0  0  0  0
    8.4260   42.7939  131.0085 O   0  0  0  0  0  0  0  0  0  0  0  0
    8.9946   42.8727  130.2281 H   0  0  0  0  0  0  0  0  0  0  0  0
    9.9658   49.2566  131.9863 C   0  0  0  0  0  0  0  0  0  0  0  0
    9.2835   49.5579  130.7182 C   0  0  0  0  0  0  0  0  0  0  0  0
    8.1803   50.4299  130.6956 O   0  0  0  0  0  0  0  0  0  0  0  0
    9.6420   49.0683  129.6412 O   0  0  0  0  0  0  0  0  0  0  0  0
    7.4263   50.3517  131.3907 H   0  0  0  0  0  0  0  0  0  0  0  0
   12.5550   44.9208  132.8557 C   0  0  0  0  0  0  0  0  0  0  0  0
   12.8680   43.8628  132.0693 O   0  0  0  0  0  0  0  0  0  0  0  0
   11.7279   43.3293  131.4454 C   0  0  0  0  0  0  0  0  0  0  0  0
   11.9231   43.3055  129.9788 C   0  0  0  0  0  0  0  0  0  0  0  0
   10.9432   44.1510  129.2793 N   0  0  0  0  0  0  0  0  0  0  0  0
   10.8139   46.4005  128.3986 C   0  0  0  0  0  0  0  0  0  0  0  0
   11.7110   45.4457  129.1240 C   0  0  0  0  0  0  0  0  0  0  0  0
   10.6770   43.7000  127.9221 C   0  0  0  0  0  0  0  0  0  0  0  0
    9.2472   43.3669  127.7251 C   0  0  0  0  0  0  0  0  0  0  0  0
 56 57  1  0  0  0
 57 55  1  0  0  0
 55 58  1  0  0  0
 58 59  1  0  0  0
 55 54  1  0  0  0
 54 53  1  0  0  0
 53 52  1  0  0  0
 52 51  1  0  0  0
 51  1  1  0  0  0
  1  2  1  0  0  0
  2  3  1  0  0  0
  3  4  1  0  0  0
  4  5  1  0  0  0
  5 30  1  0  0  0
 30 31  2  0  0  0
 30 32  1  0  0  0
 32 34  1  0  0  0
 34 46  1  0  0  0
 46 47  1  0  0  0
 47 48  1  0  0  0
 47 49  2  0  0  0
 34 35  1  0  0  0
 35 36  2  0  0  0
 35 37  1  0  0  0
 37 39  1  0  0  0
 39 40  1  0  0  0
 40 41  1  0  0  0
 39 43  1  0  0  0
 43 44  1  0  0  0
  3  7  1  0  0  0
  7  8  2  0  0  0
  7  9  1  0  0  0
  9 11  1  0  0  0
 11 12  1  0  0  0
 12 13  2  0  0  0
 12 14  1  0  0  0
 14 16  1  0  0  0
 16 21  1  0  0  0
 21 22  1  0  0  0
 22 23  2  0  0  0
 23 24  1  0  0  0
 24 25  2  0  0  0
 25 26  1  0  0  0
 25 27  1  0  0  0
 27 28  2  0  0  0
 16 17  1  0  0  0
 17 18  1  0  0  0
 17 19  2  0  0  0
  5  1  1  0  0  0
 28 22  1  0  0  0
  2  6  1  0  0  0
 32 33  1  0  0  0
 48 50  1  0  0  0
 37 38  1  0  0  0
 41 42  1  0  0  0
 44 45  1  0  0  0
  9 10  1  0  0  0
 14 15  1  0  0  0
 26 29  1  0  0  0
 18 20  1  0  0  0
M  END
> <minimizedAffinity>
6.26147

> <CNNscore>
0.3635482788

> <CNNaffinity>
7.0418219566

> <CNN_VS>
2.5600421429

> <CNNaffinity_variance>
0.2971590459

$$$$
[H]OC(=O)C([H])([H])[C@@]([H])(C(=O)N([H])C([H])(C([H])([H])O[H])C([H])([H])O[H])N([H])C(=O)[C@@]1([H])C([H])([H])[C@]([H])(C(=O)N([H])C([H])([H])C(=O)N([H])[C@]([H])(C(=O)O[H])C([H])([H])c2c([H])c([H])c(O[H])c([H])c2[H])N([H])[C@]1([H])C([H])([H])OC([H])([H])C([H])([H])N(C([H])([H])C([H])([H])[H])C([H])([H])C([H])([H])[H]


 59 60  0  0  0  0  0  0  0  0999 V2000
    7.0010   47.8216  128.8458 C   0  0  0  0  0  0  0  0  0  0  0  0
    6.2802   49.1049  128.9108 N   0  0  0  0  0  0  0  0  0  0  0  0
    7.2584   50.0352  128.4054 C   0  0  0  0  0  0  0  0  0  0  0  0
    8.5775   49.5636  128.9457 C   0  0  0  0  0  0  0  0  0  0  0  0
    8.3319   48.1676  129.4476 C   0  0  0  0  0  0  0  0  0  0  0  0
    5.4544   49.0704  128.2460 H   0  0  0  0  0  0  0  0  0  0  0  0
    6.9608   51.4291  128.8821 C   0  0  0  0  0  0  0  0  0  0  0  0
    6.6447   51.6150  130.0847 O   0  0  0  0  0  0  0  0  0  0  0  0
    7.0490   52.4845  127.9403 N   0  0  0  0  0  0  0  0  0  0  0  0
    7.3006   52.3259  126.9557 H   0  0  0  0  0  0  0  0  0  0  0  0
    6.7729   53.8289  128.3895 C   0  0  0  0  0  0  0  0  0  0  0  0
    6.7072   54.8051  127.2948 C   0  0  0  0  0  0  0  0  0  0  0  0
    7.6703   55.5950  127.1277 O   0  0  0  0  0  0  0  0  0  0  0  0
    5.5721   54.8496  126.4414 N   0  0  0  0  0  0  0  0  0  0  0  0
    4.7674   54.2030  126.5856 H   0  0  0  0  0  0  0  0  0  0  0  0
    5.4980   55.8209  125.3196 C   0  0  0  0  0  0  0  0  0  0  0  0
    4.5113   55.3808  124.3343 C   0  0  0  0  0  0  0  0  0  0  0  0
    3.5378   56.2376  123.8686 O   0  0  0  0  0  0  0  0  0  0  0  0
    4.5365   54.2043  123.8959 O   0  0  0  0  0  0  0  0  0  0  0  0
    2.7158   56.5136  124.3960 H   0  0  0  0  0  0  0  0  0  0  0  0
    6.8926   56.0029  124.8322 C   0  0  0  0  0  0  0  0  0  0  0  0
    7.5295   54.8223  124.2168 C   0  0  0  0  0  0  0  0  0  0  0  0
    7.2531   54.4957  122.8766 C   0  0  0  0  0  0  0  0  0  0  0  0
    7.8237   53.4217  122.2443 C   0  0  0  0  0  0  0  0  0  0  0  0
    8.7103   52.5954  122.9007 C   0  0  0  0  0  0  0  0  0  0  0  0
    9.2868   51.4954  122.2366 O   0  0  0  0  0  0  0  0  0  0  0  0
    8.9999   52.8907  124.2133 C   0  0  0  0  0  0  0  0  0  0  0  0
    8.4173   53.9830  124.8505 C   0  0  0  0  0  0  0  0  0  0  0  0
   10.1555   51.6443  121.7476 H   0  0  0  0  0  0  0  0  0  0  0  0
    9.3395   47.1799  129.0241 C   0  0  0  0  0  0  0  0  0  0  0  0
   10.4886   47.5583  128.6896 O   0  0  0  0  0  0  0  0  0  0  0  0
    9.0192   45.8132  128.9884 N   0  0  0  0  0  0  0  0  0  0  0  0
    8.0884   45.4823  129.2711 H   0  0  0  0  0  0  0  0  0  0  0  0
   10.0090   44.7936  128.5438 C   0  0  0  0  0  0  0  0  0  0  0  0
    9.8795   43.6299  129.4286 C   0  0  0  0  0  0  0  0  0  0  0  0
    9.7835   42.4683  128.9243 O   0  0  0  0  0  0  0  0  0  0  0  0
    9.8619   43.7444  130.8288 N   0  0  0  0  0  0  0  0  0  0  0  0
    9.9599   44.6616  131.2935 H   0  0  0  0  0  0  0  0  0  0  0  0
    9.7230   42.5803  131.6974 C   0  0  0  0  0  0  0  0  0  0  0  0
    8.3772   42.6695  132.3692 C   0  0  0  0  0  0  0  0  0  0  0  0
    8.4167   42.1770  133.6723 O   0  0  0  0  0  0  0  0  0  0  0  0
    7.9503   41.2987  133.6499 H   0  0  0  0  0  0  0  0  0  0  0  0
   10.8799   42.5949  132.6696 C   0  0  0  0  0  0  0  0  0  0  0  0
   11.9528   41.8764  132.2167 O   0  0  0  0  0  0  0  0  0  0  0  0
   11.8375   41.4945  131.3339 H   0  0  0  0  0  0  0  0  0  0  0  0
   11.3748   45.4846  128.7331 C   0  0  0  0  0  0  0  0  0  0  0  0
   12.1813   44.8904  129.8105 C   0  0  0  0  0  0  0  0  0  0  0  0
   12.9659   43.7498  129.5631 O   0  0  0  0  0  0  0  0  0  0  0  0
   12.2037   45.3572  130.9549 O   0  0  0  0  0  0  0  0  0  0  0  0
   12.5890   42.9481  129.0406 H   0  0  0  0  0  0  0  0  0  0  0  0
    6.2614   46.7319  129.5869 C   0  0  0  0  0  0  0  0  0  0  0  0
    6.4017   46.9312  130.9196 O   0  0  0  0  0  0  0  0  0  0  0  0
    7.3619   46.0669  131.4716 C   0  0  0  0  0  0  0  0  0  0  0  0
    8.2053   46.8049  132.4379 C   0  0  0  0  0  0  0  0  0  0  0  0
    9.3738   46.0181  132.8620 N   0  0  0  0  0  0  0  0  0  0  0  0
   11.5951   46.4996  133.6906 C   0  0  0  0  0  0  0  0  0  0  0  0
   10.4548   47.0759  132.9094 C   0  0  0  0  0  0  0  0  0  0  0  0
    9.2583   45.5288  134.2270 C   0  0  0  0  0  0  0  0  0  0  0  0
    7.9057   45.7659  134.7823 C   0  0  0  0  0  0  0  0  0  0  0  0
 56 57  1  0  0  0
 57 55  1  0  0  0
 55 58  1  0  0  0
 58 59  1  0  0  0
 55 54  1  0  0  0
 54 53  1  0  0  0
 53 52  1  0  0  0
 52 51  1  0  0  0
 51  1  1  0  0  0
  1  2  1  0  0  0
  2  3  1  0  0  0
  3  4  1  0  0  0
  4  5  1  0  0  0
  5 30  1  0  0  0
 30 31  2  0  0  0
 30 32  1  0  0  0
 32 34  1  0  0  0
 34 46  1  0  0  0
 46 47  1  0  0  0
 47 48  1  0  0  0
 47 49  2  0  0  0
 34 35  1  0  0  0
 35 36  2  0  0  0
 35 37  1  0  0  0
 37 39  1  0  0  0
 39 40  1  0  0  0
 40 41  1  0  0  0
 39 43  1  0  0  0
 43 44  1  0  0  0
  3  7  1  0  0  0
  7  8  2  0  0  0
  7  9  1  0  0  0
  9 11  1  0  0  0
 11 12  1  0  0  0
 12 13  2  0  0  0
 12 14  1  0  0  0
 14 16  1  0  0  0
 16 21  1  0  0  0
 21 22  1  0  0  0
 22 23  2  0  0  0
 23 24  1  0  0  0
 24 25  2  0  0  0
 25 26  1  0  0  0
 25 27  1  0  0  0
 27 28  2  0  0  0
 16 17  1  0  0  0
 17 18  1  0  0  0
 17 19  2  0  0  0
  5  1  1  0  0  0
 28 22  1  0  0  0
  2  6  1  0  0  0
 32 33  1  0  0  0
 48 50  1  0  0  0
 37 38  1  0  0  0
 41 42  1  0  0  0
 44 45  1  0  0  0
  9 10  1  0  0  0
 14 15  1  0  0  0
 26 29  1  0  0  0
 18 20  1  0  0  0
M  END
> <minimizedAffinity>
0.35851

> <CNNscore>
0.3348155618

> <CNNaffinity>
7.1820015907

> <CNN_VS>
2.4046459198

> <CNNaffinity_variance>
0.0894559473

$$$$
[H]OC(=O)C([H])([H])[C@@]([H])(C(=O)N([H])C([H])(C([H])([H])O[H])C([H])([H])O[H])N([H])C(=O)[C@@]1([H])C([H])([H])[C@]([H])(C(=O)N([H])C([H])([H])C(=O)N([H])[C@]([H])(C(=O)O[H])C([H])([H])c2c([H])c([H])c(O[H])c([H])c2[H])N([H])[C@]1([H])C([H])([H])OC([H])([H])C([H])([H])N(C([H])([H])C([H])([H])[H])C([H])([H])C([H])([H])[H]


 59 60  0  0  0  0  0  0  0  0999 V2000
    7.1476   46.7128  130.2355 C   0  0  0  0  0  0  0  0  0  0  0  0
    6.3986   47.9665  130.0410 N   0  0  0  0  0  0  0  0  0  0  0  0
    7.2790   48.7238  129.1870 C   0  0  0  0  0  0  0  0  0  0  0  0
    8.6676   48.4147  129.6672 C   0  0  0  0  0  0  0  0  0  0  0  0
    8.5288   47.2075  130.5528 C   0  0  0  0  0  0  0  0  0  0  0  0
    5.5009   47.7540  129.5173 H   0  0  0  0  0  0  0  0  0  0  0  0
    6.9954   50.1950  129.3038 C   0  0  0  0  0  0  0  0  0  0  0  0
    6.3485   50.6215  130.2940 O   0  0  0  0  0  0  0  0  0  0  0  0
    7.4746   51.0458  128.2767 N   0  0  0  0  0  0  0  0  0  0  0  0
    7.9967   50.6907  127.4647 H   0  0  0  0  0  0  0  0  0  0  0  0
    7.2148   52.4623  128.3829 C   0  0  0  0  0  0  0  0  0  0  0  0
    7.3651   53.1776  127.1096 C   0  0  0  0  0  0  0  0  0  0  0  0
    7.4309   52.5135  126.0448 O   0  0  0  0  0  0  0  0  0  0  0  0
    7.4327   54.5967  127.0884 N   0  0  0  0  0  0  0  0  0  0  0  0
    7.3899   55.1486  127.9715 H   0  0  0  0  0  0  0  0  0  0  0  0
    7.5686   55.3354  125.8064 C   0  0  0  0  0  0  0  0  0  0  0  0
    8.6433   56.3222  125.9032 C   0  0  0  0  0  0  0  0  0  0  0  0
    9.0977   56.7635  127.1269 O   0  0  0  0  0  0  0  0  0  0  0  0
    9.1711   56.7867  124.8627 O   0  0  0  0  0  0  0  0  0  0  0  0
    8.6006   57.4188  127.7216 H   0  0  0  0  0  0  0  0  0  0  0  0
    6.2129   55.8552  125.4783 C   0  0  0  0  0  0  0  0  0  0  0  0
    5.4700   55.1287  124.4301 C   0  0  0  0  0  0  0  0  0  0  0  0
    6.1611   54.5778  123.3356 C   0  0  0  0  0  0  0  0  0  0  0  0
    5.5306   53.8801  122.3383 C   0  0  0  0  0  0  0  0  0  0  0  0
    4.1669   53.6808  122.3587 C   0  0  0  0  0  0  0  0  0  0  0  0
    3.5347   52.9625  121.3254 O   0  0  0  0  0  0  0  0  0  0  0  0
    3.4646   54.2087  123.4180 C   0  0  0  0  0  0  0  0  0  0  0  0
    4.1102   54.9165  124.4282 C   0  0  0  0  0  0  0  0  0  0  0  0
    3.4429   51.9647  121.4348 H   0  0  0  0  0  0  0  0  0  0  0  0
    9.5102   46.1407  130.2899 C   0  0  0  0  0  0  0  0  0  0  0  0
   10.7313   46.3453  130.4964 O   0  0  0  0  0  0  0  0  0  0  0  0
    9.0863   44.8935  129.8037 N   0  0  0  0  0  0  0  0  0  0  0  0
    8.0900   44.7021  129.6409 H   0  0  0  0  0  0  0  0  0  0  0  0
   10.0563   43.8034  129.5075 C   0  0  0  0  0  0  0  0  0  0  0  0
   11.3906   44.4069  129.4107 C   0  0  0  0  0  0  0  0  0  0  0  0
   11.6712   45.1484  128.4187 O   0  0  0  0  0  0  0  0  0  0  0  0
   12.3840   44.2023  130.3829 N   0  0  0  0  0  0  0  0  0  0  0  0
   12.2034   43.6277  131.2221 H   0  0  0  0  0  0  0  0  0  0  0  0
   13.7101   44.8003  130.2702 C   0  0  0  0  0  0  0  0  0  0  0  0
   14.6775   43.7022  129.9115 C   0  0  0  0  0  0  0  0  0  0  0  0
   15.2664   43.9187  128.6670 O   0  0  0  0  0  0  0  0  0  0  0  0
   14.8466   43.2655  128.0454 H   0  0  0  0  0  0  0  0  0  0  0  0
   14.0240   45.4678  131.5893 C   0  0  0  0  0  0  0  0  0  0  0  0
   12.9059   45.6722  132.3512 O   0  0  0  0  0  0  0  0  0  0  0  0
   12.0862   45.3332  131.9618 H   0  0  0  0  0  0  0  0  0  0  0  0
    9.5980   43.2499  128.1428 C   0  0  0  0  0  0  0  0  0  0  0  0
    9.0404   44.2825  127.2556 C   0  0  0  0  0  0  0  0  0  0  0  0
    7.6874   44.2358  126.8747 O   0  0  0  0  0  0  0  0  0  0  0  0
    9.7219   45.2154  126.8157 O   0  0  0  0  0  0  0  0  0  0  0  0
    7.2520   43.3568  126.5655 H   0  0  0  0  0  0  0  0  0  0  0  0
    6.5372   45.8658  131.3280 C   0  0  0  0  0  0  0  0  0  0  0  0
    7.5051   45.0971  131.8830 O   0  0  0  0  0  0  0  0  0  0  0  0
    7.5017   45.1963  133.2844 C   0  0  0  0  0  0  0  0  0  0  0  0
    8.3771   46.3106  133.7108 C   0  0  0  0  0  0  0  0  0  0  0  0
    9.5486   45.8338  134.4622 N   0  0  0  0  0  0  0  0  0  0  0  0
   11.0179   43.9128  134.4024 C   0  0  0  0  0  0  0  0  0  0  0  0
   10.0242   44.6890  133.5944 C   0  0  0  0  0  0  0  0  0  0  0  0
   10.6439   46.7911  134.4652 C   0  0  0  0  0  0  0  0  0  0  0  0
   10.3654   47.9463  133.5809 C   0  0  0  0  0  0  0  0  0  0  0  0
 56 57  1  0  0  0
 57 55  1  0  0  0
 55 58  1  0  0  0
 58 59  1  0  0  0
 55 54  1  0  0  0
 54 53  1  0  0  0
 53 52  1  0  0  0
 52 51  1  0  0  0
 51  1  1  0  0  0
  1  2  1  0  0  0
  2  3  1  0  0  0
  3  4  1  0  0  0
  4  5  1  0  0  0
  5 30  1  0  0  0
 30 31  2  0  0  0
 30 32  1  0  0  0
 32 34  1  0  0  0
 34 46  1  0  0  0
 46 47  1  0  0  0
 47 48  1  0  0  0
 47 49  2  0  0  0
 34 35  1  0  0  0
 35 36  2  0  0  0
 35 37  1  0  0  0
 37 39  1  0  0  0
 39 40  1  0  0  0
 40 41  1  0  0  0
 39 43  1  0  0  0
 43 44  1  0  0  0
  3  7  1  0  0  0
  7  8  2  0  0  0
  7  9  1  0  0  0
  9 11  1  0  0  0
 11 12  1  0  0  0
 12 13  2  0  0  0
 12 14  1  0  0  0
 14 16  1  0  0  0
 16 21  1  0  0  0
 21 22  1  0  0  0
 22 23  2  0  0  0
 23 24  1  0  0  0
 24 25  2  0  0  0
 25 26  1  0  0  0
 25 27  1  0  0  0
 27 28  2  0  0  0
 16 17  1  0  0  0
 17 18  1  0  0  0
 17 19  2  0  0  0
  5  1  1  0  0  0
 28 22  1  0  0  0
  2  6  1  0  0  0
 32 33  1  0  0  0
 48 50  1  0  0  0
 37 38  1  0  0  0
 41 42  1  0  0  0
 44 45  1  0  0  0
  9 10  1  0  0  0
 14 15  1  0  0  0
 26 29  1  0  0  0
 18 20  1  0  0  0
M  END
> <minimizedAffinity>
3.07648

> <CNNscore>
0.3245390356

> <CNNaffinity>
7.1014227867

> <CNN_VS>
2.3046889305

> <CNNaffinity_variance>
0.6596292257

$$$$
[H]OC(=O)C([H])([H])[C@@]([H])(C(=O)N([H])C([H])(C([H])([H])O[H])C([H])([H])O[H])N([H])C(=O)[C@@]1([H])C([H])([H])[C@]([H])(C(=O)N([H])C([H])([H])C(=O)N([H])[C@]([H])(C(=O)O[H])C([H])([H])c2c([H])c([H])c(O[H])c([H])c2[H])N([H])[C@]1([H])C([H])([H])OC([H])([H])C([H])([H])N(C([H])([H])C([H])([H])[H])C([H])([H])C([H])([H])[H]


 59 60  0  0  0  0  0  0  0  0999 V2000
    8.2625   50.4721  130.0769 C   0  0  0  0  0  0  0  0  0  0  0  0
    8.3012   49.0003  130.0219 N   0  0  0  0  0  0  0  0  0  0  0  0
    8.0083   48.7346  128.6357 C   0  0  0  0  0  0  0  0  0  0  0  0
    6.9813   49.7558  128.2398 C   0  0  0  0  0  0  0  0  0  0  0  0
    6.9995   50.7903  129.3308 C   0  0  0  0  0  0  0  0  0  0  0  0
    9.2864   48.6730  130.2400 H   0  0  0  0  0  0  0  0  0  0  0  0
    7.4630   47.3445  128.4658 C   0  0  0  0  0  0  0  0  0  0  0  0
    6.2426   47.1883  128.2067 O   0  0  0  0  0  0  0  0  0  0  0  0
    8.3616   46.2580  128.6098 N   0  0  0  0  0  0  0  0  0  0  0  0
    9.3576   46.3910  128.8294 H   0  0  0  0  0  0  0  0  0  0  0  0
    7.8501   44.9182  128.4406 C   0  0  0  0  0  0  0  0  0  0  0  0
    8.6126   43.9072  129.1835 C   0  0  0  0  0  0  0  0  0  0  0  0
    9.4785   43.2310  128.5735 O   0  0  0  0  0  0  0  0  0  0  0  0
    8.3718   43.7029  130.5688 N   0  0  0  0  0  0  0  0  0  0  0  0
    7.6460   44.2547  131.0739 H   0  0  0  0  0  0  0  0  0  0  0  0
    9.1464   42.6948  131.3377 C   0  0  0  0  0  0  0  0  0  0  0  0
    8.8301   42.7931  132.7620 C   0  0  0  0  0  0  0  0  0  0  0  0
    8.1370   43.8724  133.2653 O   0  0  0  0  0  0  0  0  0  0  0  0
    9.1905   41.8876  133.5539 O   0  0  0  0  0  0  0  0  0  0  0  0
    8.5361   44.7944  133.4096 H   0  0  0  0  0  0  0  0  0  0  0  0
   10.5727   42.8844  130.9563 C   0  0  0  0  0  0  0  0  0  0  0  0
   11.3702   43.7702  131.8268 C   0  0  0  0  0  0  0  0  0  0  0  0
   11.7207   43.3488  133.1224 C   0  0  0  0  0  0  0  0  0  0  0  0
   12.4713   44.1187  133.9726 C   0  0  0  0  0  0  0  0  0  0  0  0
   12.9269   45.3633  133.5942 C   0  0  0  0  0  0  0  0  0  0  0  0
   13.6961   46.1419  134.4804 O   0  0  0  0  0  0  0  0  0  0  0  0
   12.5992   45.8018  132.3315 C   0  0  0  0  0  0  0  0  0  0  0  0
   11.8364   45.0156  131.4722 C   0  0  0  0  0  0  0  0  0  0  0  0
   14.6975   46.0301  134.4561 H   0  0  0  0  0  0  0  0  0  0  0  0
    7.0438   52.1827  128.8521 C   0  0  0  0  0  0  0  0  0  0  0  0
    6.8897   53.1304  129.6606 O   0  0  0  0  0  0  0  0  0  0  0  0
    7.2538   52.4567  127.4911 N   0  0  0  0  0  0  0  0  0  0  0  0
    7.3953   51.6952  126.8158 H   0  0  0  0  0  0  0  0  0  0  0  0
    7.2816   53.8526  126.9737 C   0  0  0  0  0  0  0  0  0  0  0  0
    5.9624   54.1424  126.3995 C   0  0  0  0  0  0  0  0  0  0  0  0
    4.9479   53.4947  126.8045 O   0  0  0  0  0  0  0  0  0  0  0  0
    5.7679   55.1218  125.4112 N   0  0  0  0  0  0  0  0  0  0  0  0
    6.5531   55.6946  125.0615 H   0  0  0  0  0  0  0  0  0  0  0  0
    4.4526   55.3938  124.8413 C   0  0  0  0  0  0  0  0  0  0  0  0
    4.4417   54.8490  123.4365 C   0  0  0  0  0  0  0  0  0  0  0  0
    5.5884   54.1061  123.1616 O   0  0  0  0  0  0  0  0  0  0  0  0
    6.1443   54.6690  122.5587 H   0  0  0  0  0  0  0  0  0  0  0  0
    4.2261   56.8866  124.9065 C   0  0  0  0  0  0  0  0  0  0  0  0
    3.2126   57.2983  124.0844 O   0  0  0  0  0  0  0  0  0  0  0  0
    2.7638   56.5828  123.6098 H   0  0  0  0  0  0  0  0  0  0  0  0
    8.3690   53.8290  125.8802 C   0  0  0  0  0  0  0  0  0  0  0  0
    8.5815   55.1388  125.2450 C   0  0  0  0  0  0  0  0  0  0  0  0
    9.0673   56.2225  125.9984 O   0  0  0  0  0  0  0  0  0  0  0  0
    8.3473   55.3396  124.0479 O   0  0  0  0  0  0  0  0  0  0  0  0
    8.6847   56.4375  126.9285 H   0  0  0  0  0  0  0  0  0  0  0  0
    8.2720   50.9742  131.5022 C   0  0  0  0  0  0  0  0  0  0  0  0
    9.4980   50.7595  132.0373 O   0  0  0  0  0  0  0  0  0  0  0  0
    9.9474   49.4521  131.7877 C   0  0  0  0  0  0  0  0  0  0  0  0
   10.2941   48.7882  133.0639 C   0  0  0  0  0  0  0  0  0  0  0  0
    9.3238   47.7418  133.4214 N   0  0  0  0  0  0  0  0  0  0  0  0
    7.7494   46.5083  132.0604 C   0  0  0  0  0  0  0  0  0  0  0  0
    9.1580   47.0146  132.1047 C   0  0  0  0  0  0  0  0  0  0  0  0
    9.8726   46.7534  134.3369 C   0  0  0  0  0  0  0  0  0  0  0  0
    8.9379   46.4543  135.4464 C   0  0  0  0  0  0  0  0  0  0  0  0
 56 57  1  0  0  0
 57 55  1  0  0  0
 55 58  1  0  0  0
 58 59  1  0  0  0
 55 54  1  0  0  0
 54 53  1  0  0  0
 53 52  1  0  0  0
 52 51  1  0  0  0
 51  1  1  0  0  0
  1  2  1  0  0  0
  2  3  1  0  0  0
  3  4  1  0  0  0
  4  5  1  0  0  0
  5 30  1  0  0  0
 30 31  2  0  0  0
 30 32  1  0  0  0
 32 34  1  0  0  0
 34 46  1  0  0  0
 46 47  1  0  0  0
 47 48  1  0  0  0
 47 49  2  0  0  0
 34 35  1  0  0  0
 35 36  2  0  0  0
 35 37  1  0  0  0
 37 39  1  0  0  0
 39 40  1  0  0  0
 40 41  1  0  0  0
 39 43  1  0  0  0
 43 44  1  0  0  0
  3  7  1  0  0  0
  7  8  2  0  0  0
  7  9  1  0  0  0
  9 11  1  0  0  0
 11 12  1  0  0  0
 12 13  2  0  0  0
 12 14  1  0  0  0
 14 16  1  0  0  0
 16 21  1  0  0  0
 21 22  1  0  0  0
 22 23  2  0  0  0
 23 24  1  0  0  0
 24 25  2  0  0  0
 25 26  1  0  0  0
 25 27  1  0  0  0
 27 28  2  0  0  0
 16 17  1  0  0  0
 17 18  1  0  0  0
 17 19  2  0  0  0
  5  1  1  0  0  0
 28 22  1  0  0  0
  2  6  1  0  0  0
 32 33  1  0  0  0
 48 50  1  0  0  0
 37 38  1  0  0  0
 41 42  1  0  0  0
 44 45  1  0  0  0
  9 10  1  0  0  0
 14 15  1  0  0  0
 26 29  1  0  0  0
 18 20  1  0  0  0
M  END
> <minimizedAffinity>
0.82978

> <CNNscore>
0.3162970543

> <CNNaffinity>
7.3674507141

> <CNN_VS>
2.3303029537

> <CNNaffinity_variance>
0.4307488501

$$$$
[H]OC(=O)C([H])([H])[C@@]([H])(C(=O)N([H])C([H])(C([H])([H])O[H])C([H])([H])O[H])N([H])C(=O)[C@@]1([H])C([H])([H])[C@]([H])(C(=O)N([H])C([H])([H])C(=O)N([H])[C@]([H])(C(=O)O[H])C([H])([H])c2c([H])c([H])c(O[H])c([H])c2[H])N([H])[C@]1([H])C([H])([H])OC([H])([H])C([H])([H])N(C([H])([H])C([H])([H])[H])C([H])([H])C([H])([H])[H]


 59 60  0  0  0  0  0  0  0  0999 V2000
   10.0342   48.2347  129.6584 C   0  0  0  0  0  0  0  0  0  0  0  0
    9.3840   49.4319  129.0976 N   0  0  0  0  0  0  0  0  0  0  0  0
    8.5688   49.8850  130.1967 C   0  0  0  0  0  0  0  0  0  0  0  0
    8.0477   48.6379  130.8506 C   0  0  0  0  0  0  0  0  0  0  0  0
    8.8855   47.5154  130.3037 C   0  0  0  0  0  0  0  0  0  0  0  0
   10.1256   50.1610  128.8886 H   0  0  0  0  0  0  0  0  0  0  0  0
    7.4330   50.7345  129.6999 C   0  0  0  0  0  0  0  0  0  0  0  0
    6.3855   50.8278  130.3892 O   0  0  0  0  0  0  0  0  0  0  0  0
    7.5959   51.3988  128.4586 N   0  0  0  0  0  0  0  0  0  0  0  0
    8.4520   51.3129  127.8950 H   0  0  0  0  0  0  0  0  0  0  0  0
    6.5140   52.2242  127.9755 C   0  0  0  0  0  0  0  0  0  0  0  0
    6.9381   53.5804  127.6063 C   0  0  0  0  0  0  0  0  0  0  0  0
    7.1975   54.4045  128.5188 O   0  0  0  0  0  0  0  0  0  0  0  0
    7.0530   53.9478  126.2385 N   0  0  0  0  0  0  0  0  0  0  0  0
    6.8272   53.2692  125.4804 H   0  0  0  0  0  0  0  0  0  0  0  0
    7.4964   55.3114  125.8491 C   0  0  0  0  0  0  0  0  0  0  0  0
    6.6039   56.3166  126.4246 C   0  0  0  0  0  0  0  0  0  0  0  0
    5.2579   56.3274  126.1296 O   0  0  0  0  0  0  0  0  0  0  0  0
    7.0561   57.1934  127.2016 O   0  0  0  0  0  0  0  0  0  0  0  0
    4.8653   56.6506  125.2512 H   0  0  0  0  0  0  0  0  0  0  0  0
    7.6226   55.3017  124.3660 C   0  0  0  0  0  0  0  0  0  0  0  0
    6.4546   54.8037  123.6136 C   0  0  0  0  0  0  0  0  0  0  0  0
    6.6396   54.1709  122.3708 C   0  0  0  0  0  0  0  0  0  0  0  0
    5.5975   53.6744  121.6315 C   0  0  0  0  0  0  0  0  0  0  0  0
    4.2965   53.7723  122.0760 C   0  0  0  0  0  0  0  0  0  0  0  0
    3.2374   53.2578  121.3035 O   0  0  0  0  0  0  0  0  0  0  0  0
    4.0853   54.3868  123.2892 C   0  0  0  0  0  0  0  0  0  0  0  0
    5.1475   54.8893  124.0359 C   0  0  0  0  0  0  0  0  0  0  0  0
    2.9668   52.2990  121.4564 H   0  0  0  0  0  0  0  0  0  0  0  0
    9.3949   46.5808  131.3220 C   0  0  0  0  0  0  0  0  0  0  0  0
    9.8669   47.0207  132.3987 O   0  0  0  0  0  0  0  0  0  0  0  0
    9.3591   45.1960  131.0925 N   0  0  0  0  0  0  0  0  0  0  0  0
    8.9646   44.8157  130.2233 H   0  0  0  0  0  0  0  0  0  0  0  0
    9.8866   44.2277  132.0930 C   0  0  0  0  0  0  0  0  0  0  0  0
    9.2244   44.5031  133.3734 C   0  0  0  0  0  0  0  0  0  0  0  0
    8.5830   43.5759  133.9581 O   0  0  0  0  0  0  0  0  0  0  0  0
    9.2731   45.7631  133.9929 N   0  0  0  0  0  0  0  0  0  0  0  0
    9.7994   46.5470  133.5741 H   0  0  0  0  0  0  0  0  0  0  0  0
    8.6022   46.0268  135.2614 C   0  0  0  0  0  0  0  0  0  0  0  0
    7.4186   45.0990  135.3539 C   0  0  0  0  0  0  0  0  0  0  0  0
    6.2692   45.6722  134.8130 O   0  0  0  0  0  0  0  0  0  0  0  0
    5.6903   45.9120  135.5855 H   0  0  0  0  0  0  0  0  0  0  0  0
    8.2200   47.4889  135.2810 C   0  0  0  0  0  0  0  0  0  0  0  0
    8.8675   48.2118  134.3162 O   0  0  0  0  0  0  0  0  0  0  0  0
    9.4441   47.6880  133.7402 H   0  0  0  0  0  0  0  0  0  0  0  0
   11.3939   44.5457  132.1689 C   0  0  0  0  0  0  0  0  0  0  0  0
   11.9372   44.4591  133.5333 C   0  0  0  0  0  0  0  0  0  0  0  0
   12.1707   45.6279  134.2798 O   0  0  0  0  0  0  0  0  0  0  0  0
   12.2064   43.3791  134.0711 O   0  0  0  0  0  0  0  0  0  0  0  0
   12.6366   46.4429  133.8598 H   0  0  0  0  0  0  0  0  0  0  0  0
   10.7334   47.4301  128.5872 C   0  0  0  0  0  0  0  0  0  0  0  0
    9.8052   46.7600  127.8626 O   0  0  0  0  0  0  0  0  0  0  0  0
   10.0716   45.3808  127.8333 C   0  0  0  0  0  0  0  0  0  0  0  0
   11.4836   45.1344  128.2010 C   0  0  0  0  0  0  0  0  0  0  0  0
   11.6043   44.4725  129.5093 N   0  0  0  0  0  0  0  0  0  0  0  0
   10.6661   42.9767  127.8555 C   0  0  0  0  0  0  0  0  0  0  0  0
   10.7132   43.2635  129.3246 C   0  0  0  0  0  0  0  0  0  0  0  0
   12.9343   43.9336  129.7475 C   0  0  0  0  0  0  0  0  0  0  0  0
   13.9316   44.4991  128.8096 C   0  0  0  0  0  0  0  0  0  0  0  0
 56 57  1  0  0  0
 57 55  1  0  0  0
 55 58  1  0  0  0
 58 59  1  0  0  0
 55 54  1  0  0  0
 54 53  1  0  0  0
 53 52  1  0  0  0
 52 51  1  0  0  0
 51  1  1  0  0  0
  1  2  1  0  0  0
  2  3  1  0  0  0
  3  4  1  0  0  0
  4  5  1  0  0  0
  5 30  1  0  0  0
 30 31  2  0  0  0
 30 32  1  0  0  0
 32 34  1  0  0  0
 34 46  1  0  0  0
 46 47  1  0  0  0
 47 48  1  0  0  0
 47 49  2  0  0  0
 34 35  1  0  0  0
 35 36  2  0  0  0
 35 37  1  0  0  0
 37 39  1  0  0  0
 39 40  1  0  0  0
 40 41  1  0  0  0
 39 43  1  0  0  0
 43 44  1  0  0  0
  3  7  1  0  0  0
  7  8  2  0  0  0
  7  9  1  0  0  0
  9 11  1  0  0  0
 11 12  1  0  0  0
 12 13  2  0  0  0
 12 14  1  0  0  0
 14 16  1  0  0  0
 16 21  1  0  0  0
 21 22  1  0  0  0
 22 23  2  0  0  0
 23 24  1  0  0  0
 24 25  2  0  0  0
 25 26  1  0  0  0
 25 27  1  0  0  0
 27 28  2  0  0  0
 16 17  1  0  0  0
 17 18  1  0  0  0
 17 19  2  0  0  0
  5  1  1  0  0  0
 28 22  1  0  0  0
  2  6  1  0  0  0
 32 33  1  0  0  0
 48 50  1  0  0  0
 37 38  1  0  0  0
 41 42  1  0  0  0
 44 45  1  0  0  0
  9 10  1  0  0  0
 14 15  1  0  0  0
 26 29  1  0  0  0
 18 20  1  0  0  0
M  END
> <minimizedAffinity>
4.25713

> <CNNscore>
0.3093170226

> <CNNaffinity>
7.3611955643

> <CNN_VS>
2.2769432068

> <CNNaffinity_variance>
0.3203509450

$$$$
[H]OC(=O)C([H])([H])[C@@]([H])(C(=O)N([H])C([H])(C([H])([H])O[H])C([H])([H])O[H])N([H])C(=O)[C@@]1([H])C([H])([H])[C@]([H])(C(=O)N([H])C([H])([H])C(=O)N([H])[C@]([H])(C(=O)O[H])C([H])([H])c2c([H])c([H])c(O[H])c([H])c2[H])N([H])[C@]1([H])C([H])([H])OC([H])([H])C([H])([H])N(C([H])([H])C([H])([H])[H])C([H])([H])C([H])([H])[H]


 59 60  0  0  0  0  0  0  0  0999 V2000
    9.2944   48.7468  131.9083 C   0  0  0  0  0  0  0  0  0  0  0  0
    8.2916   49.8096  131.7199 N   0  0  0  0  0  0  0  0  0  0  0  0
    7.5248   49.3171  130.6030 C   0  0  0  0  0  0  0  0  0  0  0  0
    8.5212   48.6641  129.6891 C   0  0  0  0  0  0  0  0  0  0  0  0
    9.7725   48.5014  130.5068 C   0  0  0  0  0  0  0  0  0  0  0  0
    7.6702   49.8533  132.5785 H   0  0  0  0  0  0  0  0  0  0  0  0
    6.8255   50.4467  129.9005 C   0  0  0  0  0  0  0  0  0  0  0  0
    5.6301   50.3018  129.5386 O   0  0  0  0  0  0  0  0  0  0  0  0
    7.5566   51.6392  129.6726 N   0  0  0  0  0  0  0  0  0  0  0  0
    8.5368   51.7498  129.9638 H   0  0  0  0  0  0  0  0  0  0  0  0
    6.8919   52.7340  129.0055 C   0  0  0  0  0  0  0  0  0  0  0  0
    7.0251   52.6906  127.5440 C   0  0  0  0  0  0  0  0  0  0  0  0
    7.0687   51.5727  126.9717 O   0  0  0  0  0  0  0  0  0  0  0  0
    7.1011   53.8958  126.7952 N   0  0  0  0  0  0  0  0  0  0  0  0
    7.0768   54.8238  127.2692 H   0  0  0  0  0  0  0  0  0  0  0  0
    7.2199   53.8683  125.3145 C   0  0  0  0  0  0  0  0  0  0  0  0
    8.5130   53.3100  124.9215 C   0  0  0  0  0  0  0  0  0  0  0  0
    9.6936   53.8674  125.3622 O   0  0  0  0  0  0  0  0  0  0  0  0
    8.5661   52.3064  124.1685 O   0  0  0  0  0  0  0  0  0  0  0  0
   10.0894   54.7310  125.0049 H   0  0  0  0  0  0  0  0  0  0  0  0
    6.9188   55.2486  124.8458 C   0  0  0  0  0  0  0  0  0  0  0  0
    7.2949   55.5631  123.4537 C   0  0  0  0  0  0  0  0  0  0  0  0
    8.2633   56.5503  123.1954 C   0  0  0  0  0  0  0  0  0  0  0  0
    8.6657   56.8774  121.9265 C   0  0  0  0  0  0  0  0  0  0  0  0
    8.1330   56.2453  120.8236 C   0  0  0  0  0  0  0  0  0  0  0  0
    8.5568   56.5941  119.5267 O   0  0  0  0  0  0  0  0  0  0  0  0
    7.1831   55.2746  121.0460 C   0  0  0  0  0  0  0  0  0  0  0  0
    6.7781   54.9465  122.3369 C   0  0  0  0  0  0  0  0  0  0  0  0
    9.3413   56.0944  119.1384 H   0  0  0  0  0  0  0  0  0  0  0  0
   10.3899   47.1667  130.4201 C   0  0  0  0  0  0  0  0  0  0  0  0
   10.9797   46.6813  131.4161 O   0  0  0  0  0  0  0  0  0  0  0  0
   10.3260   46.4338  129.2241 N   0  0  0  0  0  0  0  0  0  0  0  0
    9.8364   46.8083  128.4020 H   0  0  0  0  0  0  0  0  0  0  0  0
   10.9594   45.0922  129.0990 C   0  0  0  0  0  0  0  0  0  0  0  0
   10.0709   44.1170  129.7418 C   0  0  0  0  0  0  0  0  0  0  0  0
    9.0889   43.6418  129.0916 O   0  0  0  0  0  0  0  0  0  0  0  0
   10.2636   43.6752  131.0615 N   0  0  0  0  0  0  0  0  0  0  0  0
   11.0590   44.0104  131.6288 H   0  0  0  0  0  0  0  0  0  0  0  0
    9.3672   42.7124  131.6926 C   0  0  0  0  0  0  0  0  0  0  0  0
   10.1368   42.0216  132.7883 C   0  0  0  0  0  0  0  0  0  0  0  0
   11.2338   41.3227  132.2877 O   0  0  0  0  0  0  0  0  0  0  0  0
   10.9929   40.3588  132.3368 H   0  0  0  0  0  0  0  0  0  0  0  0
    8.8793   41.7693  130.6172 C   0  0  0  0  0  0  0  0  0  0  0  0
    7.5278   41.8550  130.4201 O   0  0  0  0  0  0  0  0  0  0  0  0
    7.0838   42.5235  130.9627 H   0  0  0  0  0  0  0  0  0  0  0  0
   12.2867   45.2270  129.8728 C   0  0  0  0  0  0  0  0  0  0  0  0
   13.3341   44.3125  129.3922 C   0  0  0  0  0  0  0  0  0  0  0  0
   13.4569   44.0329  128.0193 O   0  0  0  0  0  0  0  0  0  0  0  0
   14.1339   43.7618  130.1572 O   0  0  0  0  0  0  0  0  0  0  0  0
   12.6317   43.8170  127.4447 H   0  0  0  0  0  0  0  0  0  0  0  0
   10.3873   49.1777  132.8589 C   0  0  0  0  0  0  0  0  0  0  0  0
   10.1370   48.6563  134.0842 O   0  0  0  0  0  0  0  0  0  0  0  0
    9.1862   47.6240  134.0205 C   0  0  0  0  0  0  0  0  0  0  0  0
    9.3279   46.7377  135.1969 C   0  0  0  0  0  0  0  0  0  0  0  0
    9.4171   45.3209  134.8111 N   0  0  0  0  0  0  0  0  0  0  0  0
    7.4897   45.1634  133.3575 C   0  0  0  0  0  0  0  0  0  0  0  0
    8.9731   45.3683  133.3652 C   0  0  0  0  0  0  0  0  0  0  0  0
   10.7867   44.8321  134.7741 C   0  0  0  0  0  0  0  0  0  0  0  0
   11.6680   45.7279  133.9898 C   0  0  0  0  0  0  0  0  0  0  0  0
 56 57  1  0  0  0
 57 55  1  0  0  0
 55 58  1  0  0  0
 58 59  1  0  0  0
 55 54  1  0  0  0
 54 53  1  0  0  0
 53 52  1  0  0  0
 52 51  1  0  0  0
 51  1  1  0  0  0
  1  2  1  0  0  0
  2  3  1  0  0  0
  3  4  1  0  0  0
  4  5  1  0  0  0
  5 30  1  0  0  0
 30 31  2  0  0  0
 30 32  1  0  0  0
 32 34  1  0  0  0
 34 46  1  0  0  0
 46 47  1  0  0  0
 47 48  1  0  0  0
 47 49  2  0  0  0
 34 35  1  0  0  0
 35 36  2  0  0  0
 35 37  1  0  0  0
 37 39  1  0  0  0
 39 40  1  0  0  0
 40 41  1  0  0  0
 39 43  1  0  0  0
 43 44  1  0  0  0
  3  7  1  0  0  0
  7  8  2  0  0  0
  7  9  1  0  0  0
  9 11  1  0  0  0
 11 12  1  0  0  0
 12 13  2  0  0  0
 12 14  1  0  0  0
 14 16  1  0  0  0
 16 21  1  0  0  0
 21 22  1  0  0  0
 22 23  2  0  0  0
 23 24  1  0  0  0
 24 25  2  0  0  0
 25 26  1  0  0  0
 25 27  1  0  0  0
 27 28  2  0  0  0
 16 17  1  0  0  0
 17 18  1  0  0  0
 17 19  2  0  0  0
  5  1  1  0  0  0
 28 22  1  0  0  0
  2  6  1  0  0  0
 32 33  1  0  0  0
 48 50  1  0  0  0
 37 38  1  0  0  0
 41 42  1  0  0  0
 44 45  1  0  0  0
  9 10  1  0  0  0
 14 15  1  0  0  0
 26 29  1  0  0  0
 18 20  1  0  0  0
M  END
> <minimizedAffinity>
4.76988

> <CNNscore>
0.2912624478

> <CNNaffinity>
7.2650785446

> <CNN_VS>
2.1160445213

> <CNNaffinity_variance>
0.3668377697

$$$$
[H]OC(=O)C([H])([H])[C@@]([H])(C(=O)N([H])C([H])(C([H])([H])O[H])C([H])([H])O[H])N([H])C(=O)[C@@]1([H])C([H])([H])[C@]([H])(C(=O)N([H])C([H])([H])C(=O)N([H])[C@]([H])(C(=O)O[H])C([H])([H])c2c([H])c([H])c(O[H])c([H])c2[H])N([H])[C@]1([H])C([H])([H])OC([H])([H])C([H])([H])N(C([H])([H])C([H])([H])[H])C([H])([H])C([H])([H])[H]


 59 60  0  0  0  0  0  0  0  0999 V2000
    7.9973   47.8289  130.0641 C   0  0  0  0  0  0  0  0  0  0  0  0
    7.2651   48.7650  129.1932 N   0  0  0  0  0  0  0  0  0  0  0  0
    8.0106   49.9877  129.3571 C   0  0  0  0  0  0  0  0  0  0  0  0
    8.4117   50.0223  130.8035 C   0  0  0  0  0  0  0  0  0  0  0  0
    8.1772   48.6300  131.3206 C   0  0  0  0  0  0  0  0  0  0  0  0
    7.3481   48.4370  128.1878 H   0  0  0  0  0  0  0  0  0  0  0  0
    7.1586   51.1781  129.0170 C   0  0  0  0  0  0  0  0  0  0  0  0
    6.2558   51.5382  129.8147 O   0  0  0  0  0  0  0  0  0  0  0  0
    7.4138   51.8482  127.7945 N   0  0  0  0  0  0  0  0  0  0  0  0
    8.1486   51.5448  127.1419 H   0  0  0  0  0  0  0  0  0  0  0  0
    6.6064   52.9982  127.4615 C   0  0  0  0  0  0  0  0  0  0  0  0
    7.3950   54.1484  127.0025 C   0  0  0  0  0  0  0  0  0  0  0  0
    7.7404   55.0199  127.8393 O   0  0  0  0  0  0  0  0  0  0  0  0
    7.7596   54.2671  125.6343 N   0  0  0  0  0  0  0  0  0  0  0  0
    7.4642   53.5512  124.9368 H   0  0  0  0  0  0  0  0  0  0  0  0
    8.5709   55.4169  125.1576 C   0  0  0  0  0  0  0  0  0  0  0  0
    8.2691   56.6102  125.9469 C   0  0  0  0  0  0  0  0  0  0  0  0
    6.9890   57.1159  126.0135 O   0  0  0  0  0  0  0  0  0  0  0  0
    9.1812   57.1974  126.5797 O   0  0  0  0  0  0  0  0  0  0  0  0
    6.5381   57.6371  125.2684 H   0  0  0  0  0  0  0  0  0  0  0  0
    8.3395   55.5112  123.6902 C   0  0  0  0  0  0  0  0  0  0  0  0
    7.0666   54.9546  123.1918 C   0  0  0  0  0  0  0  0  0  0  0  0
    5.8790   55.1636  123.9164 C   0  0  0  0  0  0  0  0  0  0  0  0
    4.6641   54.6855  123.4988 C   0  0  0  0  0  0  0  0  0  0  0  0
    4.5442   53.9648  122.3300 C   0  0  0  0  0  0  0  0  0  0  0  0
    3.2885   53.4798  121.9159 O   0  0  0  0  0  0  0  0  0  0  0  0
    5.6899   53.7448  121.6001 C   0  0  0  0  0  0  0  0  0  0  0  0
    6.9212   54.2327  122.0290 C   0  0  0  0  0  0  0  0  0  0  0  0
    2.7258   54.0743  121.3279 H   0  0  0  0  0  0  0  0  0  0  0  0
    9.2918   48.0745  132.1075 C   0  0  0  0  0  0  0  0  0  0  0  0
   10.2688   48.8010  132.4128 O   0  0  0  0  0  0  0  0  0  0  0  0
    9.2693   46.7312  132.5157 N   0  0  0  0  0  0  0  0  0  0  0  0
    8.4725   46.1241  132.2871 H   0  0  0  0  0  0  0  0  0  0  0  0
   10.3910   46.1354  133.2927 C   0  0  0  0  0  0  0  0  0  0  0  0
   10.2830   44.6757  133.1851 C   0  0  0  0  0  0  0  0  0  0  0  0
   10.9699   43.9390  133.9584 O   0  0  0  0  0  0  0  0  0  0  0  0
    9.4378   44.0478  132.2550 N   0  0  0  0  0  0  0  0  0  0  0  0
    8.8392   44.5974  131.6173 H   0  0  0  0  0  0  0  0  0  0  0  0
    9.3467   42.5953  132.1514 C   0  0  0  0  0  0  0  0  0  0  0  0
   10.5712   42.1117  131.4186 C   0  0  0  0  0  0  0  0  0  0  0  0
   11.6210   41.8357  132.2928 O   0  0  0  0  0  0  0  0  0  0  0  0
   12.2786   42.5729  132.1762 H   0  0  0  0  0  0  0  0  0  0  0  0
    8.0544   42.2681  131.4393 C   0  0  0  0  0  0  0  0  0  0  0  0
    8.1055   42.5582  130.1030 O   0  0  0  0  0  0  0  0  0  0  0  0
    8.9612   42.8935  129.7966 H   0  0  0  0  0  0  0  0  0  0  0  0
   10.1395   46.6045  134.7402 C   0  0  0  0  0  0  0  0  0  0  0  0
    8.7118   46.7560  135.0613 C   0  0  0  0  0  0  0  0  0  0  0  0
    7.8176   45.6938  134.8379 O   0  0  0  0  0  0  0  0  0  0  0  0
    8.2463   47.8006  135.5307 O   0  0  0  0  0  0  0  0  0  0  0  0
    7.8369   45.1580  133.9603 H   0  0  0  0  0  0  0  0  0  0  0  0
    7.2297   46.5428  130.2653 C   0  0  0  0  0  0  0  0  0  0  0  0
    8.0355   45.4964  129.9630 O   0  0  0  0  0  0  0  0  0  0  0  0
    8.9972   45.8477  129.0010 C   0  0  0  0  0  0  0  0  0  0  0  0
   10.3499   45.7861  129.5977 C   0  0  0  0  0  0  0  0  0  0  0  0
   11.0037   44.4922  129.3471 N   0  0  0  0  0  0  0  0  0  0  0  0
    9.9522   42.9777  127.7808 C   0  0  0  0  0  0  0  0  0  0  0  0
   10.6975   44.2727  127.8815 C   0  0  0  0  0  0  0  0  0  0  0  0
   12.4542   44.5690  129.4267 C   0  0  0  0  0  0  0  0  0  0  0  0
   12.9242   44.6327  130.8300 C   0  0  0  0  0  0  0  0  0  0  0  0
 56 57  1  0  0  0
 57 55  1  0  0  0
 55 58  1  0  0  0
 58 59  1  0  0  0
 55 54  1  0  0  0
 54 53  1  0  0  0
 53 52  1  0  0  0
 52 51  1  0  0  0
 51  1  1  0  0  0
  1  2  1  0  0  0
  2  3  1  0  0  0
  3  4  1  0  0  0
  4  5  1  0  0  0
  5 30  1  0  0  0
 30 31  2  0  0  0
 30 32  1  0  0  0
 32 34  1  0  0  0
 34 46  1  0  0  0
 46 47  1  0  0  0
 47 48  1  0  0  0
 47 49  2  0  0  0
 34 35  1  0  0  0
 35 36  2  0  0  0
 35 37  1  0  0  0
 37 39  1  0  0  0
 39 40  1  0  0  0
 40 41  1  0  0  0
 39 43  1  0  0  0
 43 44  1  0  0  0
  3  7  1  0  0  0
  7  8  2  0  0  0
  7  9  1  0  0  0
  9 11  1  0  0  0
 11 12  1  0  0  0
 12 13  2  0  0  0
 12 14  1  0  0  0
 14 16  1  0  0  0
 16 21  1  0  0  0
 21 22  1  0  0  0
 22 23  2  0  0  0
 23 24  1  0  0  0
 24 25  2  0  0  0
 25 26  1  0  0  0
 25 27  1  0  0  0
 27 28  2  0  0  0
 16 17  1  0  0  0
 17 18  1  0  0  0
 17 19  2  0  0  0
  5  1  1  0  0  0
 28 22  1  0  0  0
  2  6  1  0  0  0
 32 33  1  0  0  0
 48 50  1  0  0  0
 37 38  1  0  0  0
 41 42  1  0  0  0
 44 45  1  0  0  0
  9 10  1  0  0  0
 14 15  1  0  0  0
 26 29  1  0  0  0
 18 20  1  0  0  0
M  END
> <minimizedAffinity>
-5.47030

> <CNNscore>
0.2844939828

> <CNNaffinity>
7.4994339943

> <CNN_VS>
2.1335437298

> <CNNaffinity_variance>
0.1974925399

$$$$
[H]OC(=O)C([H])([H])[C@@]([H])(C(=O)N([H])C([H])(C([H])([H])O[H])C([H])([H])O[H])N([H])C(=O)[C@@]1([H])C([H])([H])[C@]([H])(C(=O)N([H])C([H])([H])C(=O)N([H])[C@]([H])(C(=O)O[H])C([H])([H])c2c([H])c([H])c(O[H])c([H])c2[H])N([H])[C@]1([H])C([H])([H])OC([H])([H])C([H])([H])N(C([H])([H])C([H])([H])[H])C([H])([H])C([H])([H])[H]


 59 60  0  0  0  0  0  0  0  0999 V2000
   12.2763   44.4605  133.4602 C   0  0  0  0  0  0  0  0  0  0  0  0
   12.9464   43.7390  134.5562 N   0  0  0  0  0  0  0  0  0  0  0  0
   11.8337   43.2626  135.3390 C   0  0  0  0  0  0  0  0  0  0  0  0
   10.8145   44.3645  135.2997 C   0  0  0  0  0  0  0  0  0  0  0  0
   11.2534   45.2806  134.1911 C   0  0  0  0  0  0  0  0  0  0  0  0
   13.4707   42.9097  134.1530 H   0  0  0  0  0  0  0  0  0  0  0  0
   12.2595   42.9878  136.7538 C   0  0  0  0  0  0  0  0  0  0  0  0
   11.4499   43.1965  137.6929 O   0  0  0  0  0  0  0  0  0  0  0  0
   13.5735   42.5016  136.9678 N   0  0  0  0  0  0  0  0  0  0  0  0
   14.2345   42.3399  136.1965 H   0  0  0  0  0  0  0  0  0  0  0  0
   13.9905   42.2264  138.3227 C   0  0  0  0  0  0  0  0  0  0  0  0
   15.4490   42.2136  138.4904 C   0  0  0  0  0  0  0  0  0  0  0  0
   16.1137   43.2047  138.0967 O   0  0  0  0  0  0  0  0  0  0  0  0
   16.0916   41.0971  139.0899 N   0  0  0  0  0  0  0  0  0  0  0  0
   15.5431   40.2692  139.4065 H   0  0  0  0  0  0  0  0  0  0  0  0
   17.5649   41.0762  139.2810 C   0  0  0  0  0  0  0  0  0  0  0  0
   18.2376   41.5608  138.0765 C   0  0  0  0  0  0  0  0  0  0  0  0
   17.9647   41.0172  136.8401 O   0  0  0  0  0  0  0  0  0  0  0  0
   19.0827   42.4865  138.1530 O   0  0  0  0  0  0  0  0  0  0  0  0
   18.3010   40.1135  136.5233 H   0  0  0  0  0  0  0  0  0  0  0  0
   17.9083   39.6989  139.7289 C   0  0  0  0  0  0  0  0  0  0  0  0
   16.9426   38.6383  139.3812 C   0  0  0  0  0  0  0  0  0  0  0  0
   16.3515   37.8677  140.3990 C   0  0  0  0  0  0  0  0  0  0  0  0
   15.4374   36.8791  140.1418 C   0  0  0  0  0  0  0  0  0  0  0  0
   15.0462   36.5865  138.8530 C   0  0  0  0  0  0  0  0  0  0  0  0
   14.1066   35.5669  138.6061 O   0  0  0  0  0  0  0  0  0  0  0  0
   15.6081   37.3247  137.8365 C   0  0  0  0  0  0  0  0  0  0  0  0
   16.5361   38.3276  138.1035 C   0  0  0  0  0  0  0  0  0  0  0  0
   13.1312   35.8202  138.5916 H   0  0  0  0  0  0  0  0  0  0  0  0
   10.1794   45.6754  133.2633 C   0  0  0  0  0  0  0  0  0  0  0  0
    8.9777   45.5546  133.6053 O   0  0  0  0  0  0  0  0  0  0  0  0
   10.4933   46.1837  131.9927 N   0  0  0  0  0  0  0  0  0  0  0  0
   11.4709   46.3025  131.6992 H   0  0  0  0  0  0  0  0  0  0  0  0
    9.4299   46.5703  131.0249 C   0  0  0  0  0  0  0  0  0  0  0  0
    9.3519   48.0358  131.0089 C   0  0  0  0  0  0  0  0  0  0  0  0
   10.2491   48.7164  131.5958 O   0  0  0  0  0  0  0  0  0  0  0  0
    8.3169   48.7296  130.3598 N   0  0  0  0  0  0  0  0  0  0  0  0
    7.5737   48.2279  129.8471 H   0  0  0  0  0  0  0  0  0  0  0  0
    8.2453   50.1869  130.3595 C   0  0  0  0  0  0  0  0  0  0  0  0
    8.3869   50.6517  131.7857 C   0  0  0  0  0  0  0  0  0  0  0  0
    9.6452   51.1997  132.0280 O   0  0  0  0  0  0  0  0  0  0  0  0
   10.1385   50.5290  132.5722 H   0  0  0  0  0  0  0  0  0  0  0  0
    6.9290   50.5796  129.7294 C   0  0  0  0  0  0  0  0  0  0  0  0
    7.0940   51.3453  128.6073 O   0  0  0  0  0  0  0  0  0  0  0  0
    8.0172   51.4964  128.3556 H   0  0  0  0  0  0  0  0  0  0  0  0
    8.1434   45.9531  131.6102 C   0  0  0  0  0  0  0  0  0  0  0  0
    7.1651   45.5669  130.5815 C   0  0  0  0  0  0  0  0  0  0  0  0
    7.3428   44.3842  129.8416 O   0  0  0  0  0  0  0  0  0  0  0  0
    6.1666   46.2502  130.3280 O   0  0  0  0  0  0  0  0  0  0  0  0
    8.2584   44.1390  129.4425 H   0  0  0  0  0  0  0  0  0  0  0  0
   13.2567   45.2831  132.6567 C   0  0  0  0  0  0  0  0  0  0  0  0
   12.7823   45.4271  131.3958 O   0  0  0  0  0  0  0  0  0  0  0  0
   13.3913   44.5229  130.5096 C   0  0  0  0  0  0  0  0  0  0  0  0
   12.4828   44.2420  129.3759 C   0  0  0  0  0  0  0  0  0  0  0  0
   11.0753   44.1828  129.8000 N   0  0  0  0  0  0  0  0  0  0  0  0
    9.9892   43.2497  127.8501 C   0  0  0  0  0  0  0  0  0  0  0  0
   10.3537   44.5392  128.5186 C   0  0  0  0  0  0  0  0  0  0  0  0
   10.6397   42.8324  130.1205 C   0  0  0  0  0  0  0  0  0  0  0  0
    9.8857   42.7868  131.3947 C   0  0  0  0  0  0  0  0  0  0  0  0
 56 57  1  0  0  0
 57 55  1  0  0  0
 55 58  1  0  0  0
 58 59  1  0  0  0
 55 54  1  0  0  0
 54 53  1  0  0  0
 53 52  1  0  0  0
 52 51  1  0  0  0
 51  1  1  0  0  0
  1  2  1  0  0  0
  2  3  1  0  0  0
  3  4  1  0  0  0
  4  5  1  0  0  0
  5 30  1  0  0  0
 30 31  2  0  0  0
 30 32  1  0  0  0
 32 34  1  0  0  0
 34 46  1  0  0  0
 46 47  1  0  0  0
 47 48  1  0  0  0
 47 49  2  0  0  0
 34 35  1  0  0  0
 35 36  2  0  0  0
 35 37  1  0  0  0
 37 39  1  0  0  0
 39 40  1  0  0  0
 40 41  1  0  0  0
 39 43  1  0  0  0
 43 44  1  0  0  0
  3  7  1  0  0  0
  7  8  2  0  0  0
  7  9  1  0  0  0
  9 11  1  0  0  0
 11 12  1  0  0  0
 12 13  2  0  0  0
 12 14  1  0  0  0
 14 16  1  0  0  0
 16 21  1  0  0  0
 21 22  1  0  0  0
 22 23  2  0  0  0
 23 24  1  0  0  0
 24 25  2  0  0  0
 25 26  1  0  0  0
 25 27  1  0  0  0
 27 28  2  0  0  0
 16 17  1  0  0  0
 17 18  1  0  0  0
 17 19  2  0  0  0
  5  1  1  0  0  0
 28 22  1  0  0  0
  2  6  1  0  0  0
 32 33  1  0  0  0
 48 50  1  0  0  0
 37 38  1  0  0  0
 41 42  1  0  0  0
 44 45  1  0  0  0
  9 10  1  0  0  0
 14 15  1  0  0  0
 26 29  1  0  0  0
 18 20  1  0  0  0
M  END
> <minimizedAffinity>
4.86025

> <CNNscore>
0.2776267529

> <CNNaffinity>
7.2618551254

> <CNN_VS>
2.0160851479

> <CNNaffinity_variance>
0.4266520143

$$$$
[H]OC(=O)C([H])([H])[C@@]([H])(C(=O)N([H])C([H])(C([H])([H])O[H])C([H])([H])O[H])N([H])C(=O)[C@@]1([H])C([H])([H])[C@]([H])(C(=O)N([H])C([H])([H])C(=O)N([H])[C@]([H])(C(=O)O[H])C([H])([H])c2c([H])c([H])c(O[H])c([H])c2[H])N([H])[C@]1([H])C([H])([H])OC([H])([H])C([H])([H])N(C([H])([H])C([H])([H])[H])C([H])([H])C([H])([H])[H]


 59 60  0  0  0  0  0  0  0  0999 V2000
    8.4365   50.7367  130.1637 C   0  0  0  0  0  0  0  0  0  0  0  0
    8.4766   49.2662  130.2453 N   0  0  0  0  0  0  0  0  0  0  0  0
    8.0094   48.8710  128.9401 C   0  0  0  0  0  0  0  0  0  0  0  0
    6.9340   49.8562  128.5836 C   0  0  0  0  0  0  0  0  0  0  0  0
    7.0862   50.9902  129.5592 C   0  0  0  0  0  0  0  0  0  0  0  0
    9.4835   48.9549  130.3652 H   0  0  0  0  0  0  0  0  0  0  0  0
    7.4551   47.4745  128.9756 C   0  0  0  0  0  0  0  0  0  0  0  0
    6.7489   47.0670  128.0184 O   0  0  0  0  0  0  0  0  0  0  0  0
    7.7558   46.6706  130.1033 N   0  0  0  0  0  0  0  0  0  0  0  0
    8.3277   47.0115  130.8873 H   0  0  0  0  0  0  0  0  0  0  0  0
    7.2351   45.3243  130.1441 C   0  0  0  0  0  0  0  0  0  0  0  0
    8.2436   44.3018  129.8392 C   0  0  0  0  0  0  0  0  0  0  0  0
    7.8797   43.1038  129.7319 O   0  0  0  0  0  0  0  0  0  0  0  0
    9.6058   44.6675  129.6677 N   0  0  0  0  0  0  0  0  0  0  0  0
    9.9113   45.6591  129.7677 H   0  0  0  0  0  0  0  0  0  0  0  0
   10.6352   43.6466  129.3430 C   0  0  0  0  0  0  0  0  0  0  0  0
   10.5430   43.2662  127.9341 C   0  0  0  0  0  0  0  0  0  0  0  0
   10.9208   44.1363  126.9347 O   0  0  0  0  0  0  0  0  0  0  0  0
   10.1127   42.1312  127.6123 O   0  0  0  0  0  0  0  0  0  0  0  0
   10.3745   44.9370  126.6336 H   0  0  0  0  0  0  0  0  0  0  0  0
   10.4699   42.5549  130.3412 C   0  0  0  0  0  0  0  0  0  0  0  0
   10.8091   42.8892  131.7382 C   0  0  0  0  0  0  0  0  0  0  0  0
    9.8147   42.8389  132.7320 C   0  0  0  0  0  0  0  0  0  0  0  0
   10.0697   43.1236  134.0484 C   0  0  0  0  0  0  0  0  0  0  0  0
   11.3329   43.4789  134.4701 C   0  0  0  0  0  0  0  0  0  0  0  0
   11.5777   43.7692  135.8262 O   0  0  0  0  0  0  0  0  0  0  0  0
   12.3263   43.5363  133.5193 C   0  0  0  0  0  0  0  0  0  0  0  0
   12.0615   43.2462  132.1836 C   0  0  0  0  0  0  0  0  0  0  0  0
   11.8492   43.0077  136.4282 H   0  0  0  0  0  0  0  0  0  0  0  0
    7.0603   52.3302  128.9476 C   0  0  0  0  0  0  0  0  0  0  0  0
    6.8216   53.3392  129.6550 O   0  0  0  0  0  0  0  0  0  0  0  0
    7.2977   52.4850  127.5724 N   0  0  0  0  0  0  0  0  0  0  0  0
    7.5079   51.6729  126.9790 H   0  0  0  0  0  0  0  0  0  0  0  0
    7.2563   53.8235  126.9216 C   0  0  0  0  0  0  0  0  0  0  0  0
    5.9147   54.0032  126.3544 C   0  0  0  0  0  0  0  0  0  0  0  0
    4.9251   53.4151  126.8906 O   0  0  0  0  0  0  0  0  0  0  0  0
    5.6718   54.8123  125.2318 N   0  0  0  0  0  0  0  0  0  0  0  0
    6.4354   55.3323  124.7699 H   0  0  0  0  0  0  0  0  0  0  0  0
    4.3345   54.9750  124.6716 C   0  0  0  0  0  0  0  0  0  0  0  0
    4.4513   54.8726  123.1729 C   0  0  0  0  0  0  0  0  0  0  0  0
    3.8519   53.7125  122.6860 O   0  0  0  0  0  0  0  0  0  0  0  0
    4.5957   53.1041  122.4291 H   0  0  0  0  0  0  0  0  0  0  0  0
    3.8015   56.3090  125.1411 C   0  0  0  0  0  0  0  0  0  0  0  0
    3.1306   56.2151  126.3300 O   0  0  0  0  0  0  0  0  0  0  0  0
    3.1218   55.3274  126.7180 H   0  0  0  0  0  0  0  0  0  0  0  0
    8.3212   53.7363  125.8093 C   0  0  0  0  0  0  0  0  0  0  0  0
    8.6344   55.0394  125.2025 C   0  0  0  0  0  0  0  0  0  0  0  0
    9.0377   56.1190  126.0085 O   0  0  0  0  0  0  0  0  0  0  0  0
    8.5583   55.2377  123.9847 O   0  0  0  0  0  0  0  0  0  0  0  0
    8.5431   56.3448  126.8814 H   0  0  0  0  0  0  0  0  0  0  0  0
    8.6262   51.3729  131.5212 C   0  0  0  0  0  0  0  0  0  0  0  0
    9.6458   50.7510  132.1612 O   0  0  0  0  0  0  0  0  0  0  0  0
    9.4772   49.3562  132.1652 C   0  0  0  0  0  0  0  0  0  0  0  0
    9.6127   48.8382  133.5446 C   0  0  0  0  0  0  0  0  0  0  0  0
   10.3575   47.5702  133.5858 N   0  0  0  0  0  0  0  0  0  0  0  0
    8.4111   46.1530  133.8220 C   0  0  0  0  0  0  0  0  0  0  0  0
    9.5454   46.7698  134.5807 C   0  0  0  0  0  0  0  0  0  0  0  0
   10.2734   46.8266  132.3383 C   0  0  0  0  0  0  0  0  0  0  0  0
   11.6148   46.4755  131.8173 C   0  0  0  0  0  0  0  0  0  0  0  0
 56 57  1  0  0  0
 57 55  1  0  0  0
 55 58  1  0  0  0
 58 59  1  0  0  0
 55 54  1  0  0  0
 54 53  1  0  0  0
 53 52  1  0  0  0
 52 51  1  0  0  0
 51  1  1  0  0  0
  1  2  1  0  0  0
  2  3  1  0  0  0
  3  4  1  0  0  0
  4  5  1  0  0  0
  5 30  1  0  0  0
 30 31  2  0  0  0
 30 32  1  0  0  0
 32 34  1  0  0  0
 34 46  1  0  0  0
 46 47  1  0  0  0
 47 48  1  0  0  0
 47 49  2  0  0  0
 34 35  1  0  0  0
 35 36  2  0  0  0
 35 37  1  0  0  0
 37 39  1  0  0  0
 39 40  1  0  0  0
 40 41  1  0  0  0
 39 43  1  0  0  0
 43 44  1  0  0  0
  3  7  1  0  0  0
  7  8  2  0  0  0
  7  9  1  0  0  0
  9 11  1  0  0  0
 11 12  1  0  0  0
 12 13  2  0  0  0
 12 14  1  0  0  0
 14 16  1  0  0  0
 16 21  1  0  0  0
 21 22  1  0  0  0
 22 23  2  0  0  0
 23 24  1  0  0  0
 24 25  2  0  0  0
 25 26  1  0  0  0
 25 27  1  0  0  0
 27 28  2  0  0  0
 16 17  1  0  0  0
 17 18  1  0  0  0
 17 19  2  0  0  0
  5  1  1  0  0  0
 28 22  1  0  0  0
  2  6  1  0  0  0
 32 33  1  0  0  0
 48 50  1  0  0  0
 37 38  1  0  0  0
 41 42  1  0  0  0
 44 45  1  0  0  0
  9 10  1  0  0  0
 14 15  1  0  0  0
 26 29  1  0  0  0
 18 20  1  0  0  0
M  END
> <minimizedAffinity>
1.92595

> <CNNscore>
0.2774091661

> <CNNaffinity>
7.5834531784

> <CNN_VS>
2.1037194729

> <CNNaffinity_variance>
0.6356335878

$$$$
[H]C1=C(C(=O)[O-])N2C(=O)/C(=C(\[H])c3nc4n(c3[H])C([H])([H])C([H])([H])C4([H])[H])[C@]2([H])S1


 20 23  0  0  0  0  0  0  0  0999 V2000
    8.0725   42.8408  131.9315 C   0  0  0  0  0  0  0  0  0  0  0  0
    8.2818   42.9047  133.2296 C   0  0  0  0  0  0  0  0  0  0  0  0
    9.2341   44.3862  133.5523 S   0  0  0  0  0  0  0  0  0  0  0  0
    8.8794   45.0967  131.9188 C   0  0  0  0  0  0  0  0  0  0  0  0
    8.6149   43.8723  131.1866 N   0  0  0  0  0  0  0  0  0  0  0  0
    9.1330   44.5629  130.0533 C   0  0  0  0  0  0  0  0  0  0  0  0
    8.9978   44.6401  128.8043 O   0  0  0  0  0  0  0  0  0  0  0  0
   10.0110   45.2548  131.0068 C   0  0  0  0  0  0  0  0  0  0  0  0
   11.2023   45.7719  131.0620 C   0  0  0  0  0  0  0  0  0  0  0  0
   11.6371   46.3835  132.3098 C   0  0  0  0  0  0  0  0  0  0  0  0
   12.8228   46.0981  132.9636 C   0  0  0  0  0  0  0  0  0  0  0  0
   12.9148   46.8475  134.0979 N   0  0  0  0  0  0  0  0  0  0  0  0
   13.8036   47.0782  135.2202 C   0  0  0  0  0  0  0  0  0  0  0  0
   13.3265   48.4163  135.7518 C   0  0  0  0  0  0  0  0  0  0  0  0
   11.8629   48.4426  135.3976 C   0  0  0  0  0  0  0  0  0  0  0  0
   11.8160   47.5972  134.1707 C   0  0  0  0  0  0  0  0  0  0  0  0
   11.0407   47.3098  133.0790 N   0  0  0  0  0  0  0  0  0  0  0  0
    6.3148   41.0490  132.1255 O   0  0  0  0  0  0  0  0  0  0  0  0
    7.3006   41.6987  131.3951 C   0  0  0  0  0  0  0  0  0  0  0  0
    7.5815   41.3327  130.2243 O   0  0  0  0  0  0  0  0  0  0  0  0
 18 19  1  0  0  0
 19 20  2  0  0  0
 19  1  1  0  0  0
  1  2  2  0  0  0
  2  3  1  0  0  0
  3  4  1  0  0  0
  4  5  1  0  0  0
  5  6  1  0  0  0
  6  7  2  0  0  0
  6  8  1  0  0  0
  8  9  2  0  0  0
  9 10  1  0  0  0
 10 11  2  0  0  0
 11 12  1  0  0  0
 12 13  1  0  0  0
 13 14  1  0  0  0
 14 15  1  0  0  0
 15 16  1  0  0  0
 16 17  2  0  0  0
  5  1  1  0  0  0
 17 10  1  0  0  0
  8  4  1  0  0  0
 16 12  1  0  0  0
M  CHG 1  18  -1
M  END
> <minimizedAffinity>
13.81240

> <CNNscore>
0.4543206692

> <CNNaffinity>
6.1610326767

> <CNN_VS>
2.7990844250

> <CNNaffinity_variance>
1.1856671572

$$$$
[H]C1=C(C(=O)[O-])N2C(=O)/C(=C(\[H])c3nc4n(c3[H])C([H])([H])C([H])([H])C4([H])[H])[C@]2([H])S1


 20 23  0  0  0  0  0  0  0  0999 V2000
    9.6591   44.2174  128.5182 C   0  0  0  0  0  0  0  0  0  0  0  0
   10.1315   43.1819  129.1798 C   0  0  0  0  0  0  0  0  0  0  0  0
   10.1184   43.6000  130.9207 S   0  0  0  0  0  0  0  0  0  0  0  0
    9.0038   45.0138  130.6807 C   0  0  0  0  0  0  0  0  0  0  0  0
    9.2979   45.3065  129.2903 N   0  0  0  0  0  0  0  0  0  0  0  0
    9.0077   46.6609  129.6239 C   0  0  0  0  0  0  0  0  0  0  0  0
    8.5260   47.7126  129.1280 O   0  0  0  0  0  0  0  0  0  0  0  0
    9.5528   46.3417  130.9505 C   0  0  0  0  0  0  0  0  0  0  0  0
   10.2021   46.9152  131.9196 C   0  0  0  0  0  0  0  0  0  0  0  0
   10.5259   46.1277  133.1007 C   0  0  0  0  0  0  0  0  0  0  0  0
    9.8857   46.2287  134.3232 C   0  0  0  0  0  0  0  0  0  0  0  0
   10.4366   45.3485  135.2054 N   0  0  0  0  0  0  0  0  0  0  0  0
   10.3070   44.9116  136.5821 C   0  0  0  0  0  0  0  0  0  0  0  0
   11.0132   43.5692  136.5721 C   0  0  0  0  0  0  0  0  0  0  0  0
   12.0466   43.7147  135.4863 C   0  0  0  0  0  0  0  0  0  0  0  0
   11.4063   44.6966  134.5654 C   0  0  0  0  0  0  0  0  0  0  0  0
   11.4568   45.1759  133.2835 N   0  0  0  0  0  0  0  0  0  0  0  0
   10.0584   45.1159  126.2006 O   0  0  0  0  0  0  0  0  0  0  0  0
    9.5633   44.1310  127.0446 C   0  0  0  0  0  0  0  0  0  0  0  0
    9.0018   43.1058  126.5785 O   0  0  0  0  0  0  0  0  0  0  0  0
 18 19  1  0  0  0
 19 20  2  0  0  0
 19  1  1  0  0  0
  1  2  2  0  0  0
  2  3  1  0  0  0
  3  4  1  0  0  0
  4  5  1  0  0  0
  5  6  1  0  0  0
  6  7  2  0  0  0
  6  8  1  0  0  0
  8  9  2  0  0  0
  9 10  1  0  0  0
 10 11  2  0  0  0
 11 12  1  0  0  0
 12 13  1  0  0  0
 13 14  1  0  0  0
 14 15  1  0  0  0
 15 16  1  0  0  0
 16 17  2  0  0  0
  5  1  1  0  0  0
 17 10  1  0  0  0
  8  4  1  0  0  0
 16 12  1  0  0  0
M  CHG 1  18  -1
M  END
> <minimizedAffinity>
5.12232

> <CNNscore>
0.4307906926

> <CNNaffinity>
6.7068939209

> <CNN_VS>
2.8892674446

> <CNNaffinity_variance>
2.4259855747

$$$$
[H]C1=C(C(=O)[O-])N2C(=O)/C(=C(\[H])c3nc4n(c3[H])C([H])([H])C([H])([H])C4([H])[H])[C@]2([H])S1


 20 23  0  0  0  0  0  0  0  0999 V2000
    8.1587   43.1401  131.0171 C   0  0  0  0  0  0  0  0  0  0  0  0
    7.8312   43.7685  132.1266 C   0  0  0  0  0  0  0  0  0  0  0  0
    8.0688   45.5209  131.8466 S   0  0  0  0  0  0  0  0  0  0  0  0
    8.1505   45.3287  130.0423 C   0  0  0  0  0  0  0  0  0  0  0  0
    8.5845   43.9457  129.9767 N   0  0  0  0  0  0  0  0  0  0  0  0
    9.2437   44.3202  128.7704 C   0  0  0  0  0  0  0  0  0  0  0  0
    9.5724   43.8581  127.6469 O   0  0  0  0  0  0  0  0  0  0  0  0
    9.4291   45.6338  129.4023 C   0  0  0  0  0  0  0  0  0  0  0  0
   10.2811   46.6153  129.4169 C   0  0  0  0  0  0  0  0  0  0  0  0
    9.9953   47.7711  130.2552 C   0  0  0  0  0  0  0  0  0  0  0  0
   10.3395   47.8888  131.5902 C   0  0  0  0  0  0  0  0  0  0  0  0
    9.9239   49.0954  132.0679 N   0  0  0  0  0  0  0  0  0  0  0  0
    9.9221   49.8775  133.2891 C   0  0  0  0  0  0  0  0  0  0  0  0
    9.6634   51.2835  132.7823 C   0  0  0  0  0  0  0  0  0  0  0  0
    8.8522   51.0712  131.5313 C   0  0  0  0  0  0  0  0  0  0  0  0
    9.3284   49.7380  131.0643 C   0  0  0  0  0  0  0  0  0  0  0  0
    9.3742   48.9261  129.9624 N   0  0  0  0  0  0  0  0  0  0  0  0
    7.2191   40.9520  131.8341 O   0  0  0  0  0  0  0  0  0  0  0  0
    8.0512   41.6652  130.9818 C   0  0  0  0  0  0  0  0  0  0  0  0
    8.7612   41.0716  130.1290 O   0  0  0  0  0  0  0  0  0  0  0  0
 18 19  1  0  0  0
 19 20  2  0  0  0
 19  1  1  0  0  0
  1  2  2  0  0  0
  2  3  1  0  0  0
  3  4  1  0  0  0
  4  5  1  0  0  0
  5  6  1  0  0  0
  6  7  2  0  0  0
  6  8  1  0  0  0
  8  9  2  0  0  0
  9 10  1  0  0  0
 10 11  2  0  0  0
 11 12  1  0  0  0
 12 13  1  0  0  0
 13 14  1  0  0  0
 14 15  1  0  0  0
 15 16  1  0  0  0
 16 17  2  0  0  0
  5  1  1  0  0  0
 17 10  1  0  0  0
  8  4  1  0  0  0
 16 12  1  0  0  0
M  CHG 1  18  -1
M  END
> <minimizedAffinity>
4.41749

> <CNNscore>
0.4263028502

> <CNNaffinity>
6.3955984116

> <CNN_VS>
2.7264618874

> <CNNaffinity_variance>
1.3883186579

$$$$
[H]C1=C(C(=O)[O-])N2C(=O)/C(=C(\[H])c3nc4n(c3[H])C([H])([H])C([H])([H])C4([H])[H])[C@]2([H])S1


 20 23  0  0  0  0  0  0  0  0999 V2000
   10.3857   44.3075  133.7977 C   0  0  0  0  0  0  0  0  0  0  0  0
    9.0901   44.4238  133.5948 C   0  0  0  0  0  0  0  0  0  0  0  0
    8.8448   45.7343  132.3996 S   0  0  0  0  0  0  0  0  0  0  0  0
   10.5850   45.7286  131.8791 C   0  0  0  0  0  0  0  0  0  0  0  0
   11.1841   45.1808  133.0818 N   0  0  0  0  0  0  0  0  0  0  0  0
   12.3255   45.9632  132.7424 C   0  0  0  0  0  0  0  0  0  0  0  0
   13.5814   45.9544  132.8242 O   0  0  0  0  0  0  0  0  0  0  0  0
   11.3687   46.9257  132.1794 C   0  0  0  0  0  0  0  0  0  0  0  0
   11.2375   48.2073  132.0063 C   0  0  0  0  0  0  0  0  0  0  0  0
   10.0335   48.7006  131.3530 C   0  0  0  0  0  0  0  0  0  0  0  0
    9.4603   48.1479  130.2213 C   0  0  0  0  0  0  0  0  0  0  0  0
    8.3461   48.8534  129.8784 N   0  0  0  0  0  0  0  0  0  0  0  0
    7.2966   48.8752  128.8778 C   0  0  0  0  0  0  0  0  0  0  0  0
    6.2225   49.7153  129.5418 C   0  0  0  0  0  0  0  0  0  0  0  0
    6.9962   50.6425  130.4417 C   0  0  0  0  0  0  0  0  0  0  0  0
    8.2057   49.8347  130.7684 C   0  0  0  0  0  0  0  0  0  0  0  0
    9.2371   49.7372  131.6642 N   0  0  0  0  0  0  0  0  0  0  0  0
   10.3463   41.9958  134.7937 O   0  0  0  0  0  0  0  0  0  0  0  0
   10.8625   43.2839  134.7531 C   0  0  0  0  0  0  0  0  0  0  0  0
   11.7748   43.6375  135.5446 O   0  0  0  0  0  0  0  0  0  0  0  0
 18 19  1  0  0  0
 19 20  2  0  0  0
 19  1  1  0  0  0
  1  2  2  0  0  0
  2  3  1  0  0  0
  3  4  1  0  0  0
  4  5  1  0  0  0
  5  6  1  0  0  0
  6  7  2  0  0  0
  6  8  1  0  0  0
  8  9  2  0  0  0
  9 10  1  0  0  0
 10 11  2  0  0  0
 11 12  1  0  0  0
 12 13  1  0  0  0
 13 14  1  0  0  0
 14 15  1  0  0  0
 15 16  1  0  0  0
 16 17  2  0  0  0
  5  1  1  0  0  0
 17 10  1  0  0  0
  8  4  1  0  0  0
 16 12  1  0  0  0
M  CHG 1  18  -1
M  END
> <minimizedAffinity>
-0.25189

> <CNNscore>
0.4221623242

> <CNNaffinity>
6.6485786438

> <CNN_VS>
2.8067793846

> <CNNaffinity_variance>
0.7899568677

$$$$
[H]C1=C(C(=O)[O-])N2C(=O)/C(=C(\[H])c3nc4n(c3[H])C([H])([H])C([H])([H])C4([H])[H])[C@]2([H])S1


 20 23  0  0  0  0  0  0  0  0999 V2000
   10.6549   44.8255  133.5014 C   0  0  0  0  0  0  0  0  0  0  0  0
   10.3529   46.0374  133.9177 C   0  0  0  0  0  0  0  0  0  0  0  0
    9.1996   46.7416  132.7430 S   0  0  0  0  0  0  0  0  0  0  0  0
    8.8220   45.1326  131.9895 C   0  0  0  0  0  0  0  0  0  0  0  0
   10.0444   44.4271  132.3261 N   0  0  0  0  0  0  0  0  0  0  0  0
    9.8327   43.7008  131.1189 C   0  0  0  0  0  0  0  0  0  0  0  0
   10.0154   42.5631  130.6127 O   0  0  0  0  0  0  0  0  0  0  0  0
    9.2361   44.9396  130.6007 C   0  0  0  0  0  0  0  0  0  0  0  0
    9.1086   45.5849  129.4796 C   0  0  0  0  0  0  0  0  0  0  0  0
    8.3818   46.8466  129.4830 C   0  0  0  0  0  0  0  0  0  0  0  0
    7.0036   46.9696  129.4816 C   0  0  0  0  0  0  0  0  0  0  0  0
    6.6592   48.2880  129.4869 N   0  0  0  0  0  0  0  0  0  0  0  0
    5.4860   49.1404  129.4850 C   0  0  0  0  0  0  0  0  0  0  0  0
    6.0393   50.4677  129.9674 C   0  0  0  0  0  0  0  0  0  0  0  0
    7.4709   50.4516  129.4999 C   0  0  0  0  0  0  0  0  0  0  0  0
    7.7883   48.9951  129.4929 C   0  0  0  0  0  0  0  0  0  0  0  0
    8.8347   48.1117  129.4897 N   0  0  0  0  0  0  0  0  0  0  0  0
   12.8264   43.5899  133.8110 O   0  0  0  0  0  0  0  0  0  0  0  0
   11.6007   44.0181  134.3025 C   0  0  0  0  0  0  0  0  0  0  0  0
   11.2394   43.7290  135.4728 O   0  0  0  0  0  0  0  0  0  0  0  0
 18 19  1  0  0  0
 19 20  2  0  0  0
 19  1  1  0  0  0
  1  2  2  0  0  0
  2  3  1  0  0  0
  3  4  1  0  0  0
  4  5  1  0  0  0
  5  6  1  0  0  0
  6  7  2  0  0  0
  6  8  1  0  0  0
  8  9  2  0  0  0
  9 10  1  0  0  0
 10 11  2  0  0  0
 11 12  1  0  0  0
 12 13  1  0  0  0
 13 14  1  0  0  0
 14 15  1  0  0  0
 15 16  1  0  0  0
 16 17  2  0  0  0
  5  1  1  0  0  0
 17 10  1  0  0  0
  8  4  1  0  0  0
 16 12  1  0  0  0
M  CHG 1  18  -1
M  END
> <minimizedAffinity>
-6.49004

> <CNNscore>
0.4174264669

> <CNNaffinity>
6.8257875443

> <CNN_VS>
2.8492643833

> <CNNaffinity_variance>
0.2669543326

$$$$
[H]C1=C(C(=O)[O-])N2C(=O)/C(=C(\[H])c3nc4n(c3[H])C([H])([H])C([H])([H])C4([H])[H])[C@]2([H])S1


 20 23  0  0  0  0  0  0  0  0999 V2000
   12.4658   44.3857  129.4188 C   0  0  0  0  0  0  0  0  0  0  0  0
   12.9807   45.0404  130.4384 C   0  0  0  0  0  0  0  0  0  0  0  0
   11.6592   45.3496  131.6062 S   0  0  0  0  0  0  0  0  0  0  0  0
   10.5543   44.1284  130.8401 C   0  0  0  0  0  0  0  0  0  0  0  0
   11.1106   44.1221  129.5000 N   0  0  0  0  0  0  0  0  0  0  0  0
    9.7865   43.8251  129.0658 C   0  0  0  0  0  0  0  0  0  0  0  0
    9.1648   43.1935  128.1722 O   0  0  0  0  0  0  0  0  0  0  0  0
    9.3420   44.6412  130.2039 C   0  0  0  0  0  0  0  0  0  0  0  0
    8.3672   45.4355  130.5333 C   0  0  0  0  0  0  0  0  0  0  0  0
    8.3767   46.0337  131.8607 C   0  0  0  0  0  0  0  0  0  0  0  0
    8.6263   47.3680  132.1292 C   0  0  0  0  0  0  0  0  0  0  0  0
    8.5561   47.5882  133.4721 N   0  0  0  0  0  0  0  0  0  0  0  0
    8.6955   48.6575  134.4417 C   0  0  0  0  0  0  0  0  0  0  0  0
    7.9886   48.0949  135.6600 C   0  0  0  0  0  0  0  0  0  0  0  0
    8.1764   46.6064  135.5293 C   0  0  0  0  0  0  0  0  0  0  0  0
    8.2671   46.4244  134.0525 C   0  0  0  0  0  0  0  0  0  0  0  0
    8.1596   45.4806  133.0660 N   0  0  0  0  0  0  0  0  0  0  0  0
   14.7394   43.9717  128.4202 O   0  0  0  0  0  0  0  0  0  0  0  0
   13.3566   44.0038  128.3014 C   0  0  0  0  0  0  0  0  0  0  0  0
   12.7962   43.7033  127.2153 O   0  0  0  0  0  0  0  0  0  0  0  0
 18 19  1  0  0  0
 19 20  2  0  0  0
 19  1  1  0  0  0
  1  2  2  0  0  0
  2  3  1  0  0  0
  3  4  1  0  0  0
  4  5  1  0  0  0
  5  6  1  0  0  0
  6  7  2  0  0  0
  6  8  1  0  0  0
  8  9  2  0  0  0
  9 10  1  0  0  0
 10 11  2  0  0  0
 11 12  1  0  0  0
 12 13  1  0  0  0
 13 14  1  0  0  0
 14 15  1  0  0  0
 15 16  1  0  0  0
 16 17  2  0  0  0
  5  1  1  0  0  0
 17 10  1  0  0  0
  8  4  1  0  0  0
 16 12  1  0  0  0
M  CHG 1  18  -1
M  END
> <minimizedAffinity>
6.17484

> <CNNscore>
0.4067080617

> <CNNaffinity>
6.4998641014

> <CNN_VS>
2.6435470581

> <CNNaffinity_variance>
1.8718582392

$$$$
[H]C1=C(C(=O)[O-])N2C(=O)/C(=C(\[H])c3nc4n(c3[H])C([H])([H])C([H])([H])C4([H])[H])[C@]2([H])S1


 20 23  0  0  0  0  0  0  0  0999 V2000
   13.5379   44.4020  129.8293 C   0  0  0  0  0  0  0  0  0  0  0  0
   13.7469   44.6829  131.0983 C   0  0  0  0  0  0  0  0  0  0  0  0
   12.1562   45.0226  131.8468 S   0  0  0  0  0  0  0  0  0  0  0  0
   11.2320   44.2834  130.4689 C   0  0  0  0  0  0  0  0  0  0  0  0
   12.2184   44.4434  129.4168 N   0  0  0  0  0  0  0  0  0  0  0  0
   11.1049   44.5585  128.5356 C   0  0  0  0  0  0  0  0  0  0  0  0
   10.7558   44.2963  127.3552 O   0  0  0  0  0  0  0  0  0  0  0  0
   10.4074   45.1856  129.6667 C   0  0  0  0  0  0  0  0  0  0  0  0
    9.5018   46.0896  129.8947 C   0  0  0  0  0  0  0  0  0  0  0  0
    9.1267   46.3650  131.2744 C   0  0  0  0  0  0  0  0  0  0  0  0
    8.4976   45.4691  132.1207 C   0  0  0  0  0  0  0  0  0  0  0  0
    8.2950   46.0494  133.3368 N   0  0  0  0  0  0  0  0  0  0  0  0
    7.7295   45.7550  134.6393 C   0  0  0  0  0  0  0  0  0  0  0  0
    8.3575   46.8170  135.5215 C   0  0  0  0  0  0  0  0  0  0  0  0
    8.5888   47.9726  134.5838 C   0  0  0  0  0  0  0  0  0  0  0  0
    8.7831   47.2874  133.2742 C   0  0  0  0  0  0  0  0  0  0  0  0
    9.2880   47.4745  132.0151 N   0  0  0  0  0  0  0  0  0  0  0  0
   15.5153   42.9776  129.1978 O   0  0  0  0  0  0  0  0  0  0  0  0
   14.7021   44.0806  128.9752 C   0  0  0  0  0  0  0  0  0  0  0  0
   14.9294   44.8659  128.0185 O   0  0  0  0  0  0  0  0  0  0  0  0
 18 19  1  0  0  0
 19 20  2  0  0  0
 19  1  1  0  0  0
  1  2  2  0  0  0
  2  3  1  0  0  0
  3  4  1  0  0  0
  4  5  1  0  0  0
  5  6  1  0  0  0
  6  7  2  0  0  0
  6  8  1  0  0  0
  8  9  2  0  0  0
  9 10  1  0  0  0
 10 11  2  0  0  0
 11 12  1  0  0  0
 12 13  1  0  0  0
 13 14  1  0  0  0
 14 15  1  0  0  0
 15 16  1  0  0  0
 16 17  2  0  0  0
  5  1  1  0  0  0
 17 10  1  0  0  0
  8  4  1  0  0  0
 16 12  1  0  0  0
M  CHG 1  18  -1
M  END
> <minimizedAffinity>
3.57698

> <CNNscore>
0.4061287642

> <CNNaffinity>
6.4773306847

> <CNN_VS>
2.6306302547

> <CNNaffinity_variance>
1.9420028925

$$$$
[H]C1=C(C(=O)[O-])N2C(=O)/C(=C(\[H])c3nc4n(c3[H])C([H])([H])C([H])([H])C4([H])[H])[C@]2([H])S1


 20 23  0  0  0  0  0  0  0  0999 V2000
    9.1813   43.9331  128.9892 C   0  0  0  0  0  0  0  0  0  0  0  0
    9.2948   43.2270  130.0945 C   0  0  0  0  0  0  0  0  0  0  0  0
    8.9929   44.3280  131.4738 S   0  0  0  0  0  0  0  0  0  0  0  0
    8.2472   45.6090  130.4241 C   0  0  0  0  0  0  0  0  0  0  0  0
    8.8803   45.2718  129.1629 N   0  0  0  0  0  0  0  0  0  0  0  0
    8.7914   46.6627  128.8675 C   0  0  0  0  0  0  0  0  0  0  0  0
    8.6369   47.4531  127.9003 O   0  0  0  0  0  0  0  0  0  0  0  0
    8.9708   46.8743  130.3104 C   0  0  0  0  0  0  0  0  0  0  0  0
    9.4972   47.7370  131.1278 C   0  0  0  0  0  0  0  0  0  0  0  0
    9.4056   47.4839  132.5588 C   0  0  0  0  0  0  0  0  0  0  0  0
   10.1204   46.5157  133.2417 C   0  0  0  0  0  0  0  0  0  0  0  0
    9.7959   46.5516  134.5647 N   0  0  0  0  0  0  0  0  0  0  0  0
   10.1092   45.8861  135.8144 C   0  0  0  0  0  0  0  0  0  0  0  0
    9.6332   46.8857  136.8511 C   0  0  0  0  0  0  0  0  0  0  0  0
    8.5030   47.6058  136.1639 C   0  0  0  0  0  0  0  0  0  0  0  0
    8.8956   47.5199  134.7283 C   0  0  0  0  0  0  0  0  0  0  0  0
    8.6610   48.0841  133.5027 N   0  0  0  0  0  0  0  0  0  0  0  0
    8.7970   43.6909  126.5131 O   0  0  0  0  0  0  0  0  0  0  0  0
    9.3858   43.2531  127.6917 C   0  0  0  0  0  0  0  0  0  0  0  0
   10.1314   42.2393  127.7014 O   0  0  0  0  0  0  0  0  0  0  0  0
 18 19  1  0  0  0
 19 20  2  0  0  0
 19  1  1  0  0  0
  1  2  2  0  0  0
  2  3  1  0  0  0
  3  4  1  0  0  0
  4  5  1  0  0  0
  5  6  1  0  0  0
  6  7  2  0  0  0
  6  8  1  0  0  0
  8  9  2  0  0  0
  9 10  1  0  0  0
 10 11  2  0  0  0
 11 12  1  0  0  0
 12 13  1  0  0  0
 13 14  1  0  0  0
 14 15  1  0  0  0
 15 16  1  0  0  0
 16 17  2  0  0  0
  5  1  1  0  0  0
 17 10  1  0  0  0
  8  4  1  0  0  0
 16 12  1  0  0  0
M  CHG 1  18  -1
M  END
> <minimizedAffinity>
3.85610

> <CNNscore>
0.3526505232

> <CNNaffinity>
6.3520441055

> <CNN_VS>
2.2400517464

> <CNNaffinity_variance>
1.1122260094

$$$$
[H]C1=C(C(=O)[O-])N2C(=O)/C(=C(\[H])c3nc4n(c3[H])C([H])([H])C([H])([H])C4([H])[H])[C@]2([H])S1


 20 23  0  0  0  0  0  0  0  0999 V2000
    9.1045   47.0778  134.5831 C   0  0  0  0  0  0  0  0  0  0  0  0
    9.0443   45.7754  134.4007 C   0  0  0  0  0  0  0  0  0  0  0  0
    9.5217   45.4433  132.7073 S   0  0  0  0  0  0  0  0  0  0  0  0
   10.2480   47.0922  132.4778 C   0  0  0  0  0  0  0  0  0  0  0  0
    9.4937   47.8188  133.4821 N   0  0  0  0  0  0  0  0  0  0  0  0
    9.6357   48.9454  132.6216 C   0  0  0  0  0  0  0  0  0  0  0  0
    9.7530   50.1980  132.6553 O   0  0  0  0  0  0  0  0  0  0  0  0
    9.5896   47.9767  131.5177 C   0  0  0  0  0  0  0  0  0  0  0  0
    9.1827   47.8963  130.2858 C   0  0  0  0  0  0  0  0  0  0  0  0
    9.3791   46.6439  129.5695 C   0  0  0  0  0  0  0  0  0  0  0  0
   10.5613   46.2493  128.9685 C   0  0  0  0  0  0  0  0  0  0  0  0
   10.3976   45.0266  128.3897 N   0  0  0  0  0  0  0  0  0  0  0  0
   11.1363   44.0399  127.6258 C   0  0  0  0  0  0  0  0  0  0  0  0
   10.3052   42.7850  127.8133 C   0  0  0  0  0  0  0  0  0  0  0  0
    8.9048   43.3059  128.0014 C   0  0  0  0  0  0  0  0  0  0  0  0
    9.1414   44.6441  128.6143 C   0  0  0  0  0  0  0  0  0  0  0  0
    8.5252   45.6337  129.3329 N   0  0  0  0  0  0  0  0  0  0  0  0
    7.6436   48.4272  136.1268 O   0  0  0  0  0  0  0  0  0  0  0  0
    8.7544   47.6224  135.9131 C   0  0  0  0  0  0  0  0  0  0  0  0
    9.5225   47.3193  136.8629 O   0  0  0  0  0  0  0  0  0  0  0  0
 18 19  1  0  0  0
 19 20  2  0  0  0
 19  1  1  0  0  0
  1  2  2  0  0  0
  2  3  1  0  0  0
  3  4  1  0  0  0
  4  5  1  0  0  0
  5  6  1  0  0  0
  6  7  2  0  0  0
  6  8  1  0  0  0
  8  9  2  0  0  0
  9 10  1  0  0  0
 10 11  2  0  0  0
 11 12  1  0  0  0
 12 13  1  0  0  0
 13 14  1  0  0  0
 14 15  1  0  0  0
 15 16  1  0  0  0
 16 17  2  0  0  0
  5  1  1  0  0  0
 17 10  1  0  0  0
  8  4  1  0  0  0
 16 12  1  0  0  0
M  CHG 1  18  -1
M  END
> <minimizedAffinity>
1.16077

> <CNNscore>
0.3193946183

> <CNNaffinity>
6.3617424965

> <CNN_VS>
2.0319063663

> <CNNaffinity_variance>
0.8187462687

$$$$
[H]OC(=O)C([H])([H])[C@@]([H])(C([H])=O)N([H])C(=O)[C@@]([H])(N([H])C(=O)[C@@]([H])(N([H])C(=O)[C@@]([H])(N([H])C(=O)c1c([H])c([H])c2c([H])c([H])c([H])c([H])c2c1[H])C(C([H])([H])[H])(C([H])([H])[H])C([H])([H])[H])C([H])([H])C([H])(C([H])([H])[H])C([H])([H])[H])C([H])([H])C(=O)O[H]


 50 51  0  0  0  0  0  0  0  0999 V2000
    7.4706   46.5547  129.2933 C   0  0  0  0  0  0  0  0  0  0  0  0
    7.5484   45.2477  129.7066 N   0  0  0  0  0  0  0  0  0  0  0  0
    8.5949   44.4205  130.1157 C   0  0  0  0  0  0  0  0  0  0  0  0
    9.7408   44.9771  130.1782 O   0  0  0  0  0  0  0  0  0  0  0  0
    6.5787   44.7428  129.7556 H   0  0  0  0  0  0  0  0  0  0  0  0
    8.4789   42.9824  130.4405 C   0  0  0  0  0  0  0  0  0  0  0  0
    9.0171   42.0817  129.4782 N   0  0  0  0  0  0  0  0  0  0  0  0
    9.5575   42.5132  128.1912 C   0  0  0  0  0  0  0  0  0  0  0  0
    9.6810   43.6849  127.8761 O   0  0  0  0  0  0  0  0  0  0  0  0
    9.0059   41.0359  129.6939 H   0  0  0  0  0  0  0  0  0  0  0  0
    9.9322   41.4493  127.2693 C   0  0  0  0  0  0  0  0  0  0  0  0
   11.2919   41.0392  127.2661 C   0  0  0  0  0  0  0  0  0  0  0  0
   11.7824   40.1245  126.4283 C   0  0  0  0  0  0  0  0  0  0  0  0
   10.9759   39.5103  125.4845 C   0  0  0  0  0  0  0  0  0  0  0  0
   11.4628   38.5797  124.6239 C   0  0  0  0  0  0  0  0  0  0  0  0
   10.6263   37.9942  123.7133 C   0  0  0  0  0  0  0  0  0  0  0  0
    9.2631   38.3287  123.6470 C   0  0  0  0  0  0  0  0  0  0  0  0
    8.8297   39.2787  124.5447 C   0  0  0  0  0  0  0  0  0  0  0  0
    9.6508   39.8585  125.4388 C   0  0  0  0  0  0  0  0  0  0  0  0
    9.1500   40.8367  126.3396 C   0  0  0  0  0  0  0  0  0  0  0  0
    9.0468   42.5493  131.7622 C   0  0  0  0  0  0  0  0  0  0  0  0
    8.0407   41.7388  132.5353 C   0  0  0  0  0  0  0  0  0  0  0  0
    9.0694   43.9038  132.5814 C   0  0  0  0  0  0  0  0  0  0  0  0
   10.4468   42.1057  131.8152 C   0  0  0  0  0  0  0  0  0  0  0  0
    8.4900   47.5720  129.4092 C   0  0  0  0  0  0  0  0  0  0  0  0
    8.7553   48.4053  128.4818 O   0  0  0  0  0  0  0  0  0  0  0  0
    9.2443   47.6491  130.6039 N   0  0  0  0  0  0  0  0  0  0  0  0
    8.8729   46.8693  131.3877 H   0  0  0  0  0  0  0  0  0  0  0  0
   10.2790   48.3470  131.1611 C   0  0  0  0  0  0  0  0  0  0  0  0
   11.2913   47.8538  132.0652 C   0  0  0  0  0  0  0  0  0  0  0  0
   12.5258   47.8953  131.5737 O   0  0  0  0  0  0  0  0  0  0  0  0
   11.1808   47.3631  133.3404 N   0  0  0  0  0  0  0  0  0  0  0  0
   10.1604   47.5082  133.8248 H   0  0  0  0  0  0  0  0  0  0  0  0
   12.0913   46.8251  134.2894 C   0  0  0  0  0  0  0  0  0  0  0  0
   12.1333   45.4031  134.5935 C   0  0  0  0  0  0  0  0  0  0  0  0
   12.4400   44.5657  133.8079 O   0  0  0  0  0  0  0  0  0  0  0  0
   12.0322   47.5726  135.6290 C   0  0  0  0  0  0  0  0  0  0  0  0
   13.1830   48.4288  135.7760 C   0  0  0  0  0  0  0  0  0  0  0  0
   14.4327   47.9323  136.0429 O   0  0  0  0  0  0  0  0  0  0  0  0
   13.0635   49.7047  135.6748 O   0  0  0  0  0  0  0  0  0  0  0  0
   14.8798   47.1722  135.5190 H   0  0  0  0  0  0  0  0  0  0  0  0
    9.6665   49.6366  131.8912 C   0  0  0  0  0  0  0  0  0  0  0  0
    8.3100   49.8678  131.4711 C   0  0  0  0  0  0  0  0  0  0  0  0
    8.0250   50.6650  130.3251 O   0  0  0  0  0  0  0  0  0  0  0  0
    7.3210   49.4227  132.0543 O   0  0  0  0  0  0  0  0  0  0  0  0
    8.8509   51.0036  129.7822 H   0  0  0  0  0  0  0  0  0  0  0  0
    6.1185   47.1135  129.8084 C   0  0  0  0  0  0  0  0  0  0  0  0
    4.7675   49.1833  129.0777 C   0  0  0  0  0  0  0  0  0  0  0  0
    5.4159   47.9138  128.7692 C   0  0  0  0  0  0  0  0  0  0  0  0
    6.5417   48.2650  127.7337 C   0  0  0  0  0  0  0  0  0  0  0  0
 48 49  1  0  0  0
 49 50  1  0  0  0
 49 47  1  0  0  0
 47  1  1  0  0  0
  1  2  1  0  0  0
  2  3  1  0  0  0
  3  4  2  0  0  0
  3  6  1  0  0  0
  6  7  1  0  0  0
  7  8  1  0  0  0
  8  9  2  0  0  0
  8 11  1  0  0  0
 11 12  2  0  0  0
 12 13  1  0  0  0
 13 14  2  0  0  0
 14 15  1  0  0  0
 15 16  2  0  0  0
 16 17  1  0  0  0
 17 18  2  0  0  0
 18 19  1  0  0  0
 19 20  2  0  0  0
  6 21  1  0  0  0
 21 22  1  0  0  0
 21 23  1  0  0  0
 21 24  1  0  0  0
  1 25  1  0  0  0
 25 26  2  0  0  0
 25 27  1  0  0  0
 27 29  1  0  0  0
 29 42  1  0  0  0
 42 43  1  0  0  0
 43 44  1  0  0  0
 43 45  2  0  0  0
 29 30  1  0  0  0
 30 31  2  0  0  0
 30 32  1  0  0  0
 32 34  1  0  0  0
 34 37  1  0  0  0
 37 38  1  0  0  0
 38 39  1  0  0  0
 38 40  2  0  0  0
 34 35  1  0  0  0
 35 36  2  0  0  0
 20 11  1  0  0  0
 19 14  1  0  0  0
  2  5  1  0  0  0
  7 10  1  0  0  0
 27 28  1  0  0  0
 44 46  1  0  0  0
 32 33  1  0  0  0
 39 41  1  0  0  0
M  END
> <minimizedAffinity>
26.06104

> <CNNscore>
0.5335060954

> <CNNaffinity>
7.4243378639

> <CNN_VS>
3.9609293938

> <CNNaffinity_variance>
2.2947084904

$$$$
[H]OC(=O)C([H])([H])[C@@]([H])(C([H])=O)N([H])C(=O)[C@@]([H])(N([H])C(=O)[C@@]([H])(N([H])C(=O)[C@@]([H])(N([H])C(=O)c1c([H])c([H])c2c([H])c([H])c([H])c([H])c2c1[H])C(C([H])([H])[H])(C([H])([H])[H])C([H])([H])[H])C([H])([H])C([H])(C([H])([H])[H])C([H])([H])[H])C([H])([H])C(=O)O[H]


 50 51  0  0  0  0  0  0  0  0999 V2000
    7.0796   47.2925  130.0920 C   0  0  0  0  0  0  0  0  0  0  0  0
    7.4484   45.9727  130.1770 N   0  0  0  0  0  0  0  0  0  0  0  0
    7.5090   45.0478  131.2198 C   0  0  0  0  0  0  0  0  0  0  0  0
    7.0941   45.4686  132.3501 O   0  0  0  0  0  0  0  0  0  0  0  0
    7.7332   45.5324  129.2164 H   0  0  0  0  0  0  0  0  0  0  0  0
    8.0334   43.6687  131.1179 C   0  0  0  0  0  0  0  0  0  0  0  0
    9.2582   43.5195  130.4076 N   0  0  0  0  0  0  0  0  0  0  0  0
   10.2604   44.5779  130.3075 C   0  0  0  0  0  0  0  0  0  0  0  0
   10.1751   45.6389  130.9028 O   0  0  0  0  0  0  0  0  0  0  0  0
    9.4474   42.5981  129.9020 H   0  0  0  0  0  0  0  0  0  0  0  0
   11.3857   44.3072  129.4229 C   0  0  0  0  0  0  0  0  0  0  0  0
   11.0873   43.8960  128.0967 C   0  0  0  0  0  0  0  0  0  0  0  0
   12.0190   43.5536  127.2055 C   0  0  0  0  0  0  0  0  0  0  0  0
   13.3650   43.5732  127.5313 C   0  0  0  0  0  0  0  0  0  0  0  0
   14.3233   43.2245  126.6348 C   0  0  0  0  0  0  0  0  0  0  0  0
   15.6412   43.2665  126.9997 C   0  0  0  0  0  0  0  0  0  0  0  0
   16.0344   43.6695  128.2872 C   0  0  0  0  0  0  0  0  0  0  0  0
   15.0173   44.0099  129.1507 C   0  0  0  0  0  0  0  0  0  0  0  0
   13.7204   43.9661  128.7956 C   0  0  0  0  0  0  0  0  0  0  0  0
   12.7113   44.3249  129.7295 C   0  0  0  0  0  0  0  0  0  0  0  0
    8.2237   42.9303  132.4123 C   0  0  0  0  0  0  0  0  0  0  0  0
    7.1001   41.9544  132.6400 C   0  0  0  0  0  0  0  0  0  0  0  0
    7.9061   44.0466  133.4891 C   0  0  0  0  0  0  0  0  0  0  0  0
    9.5771   42.4905  132.7792 C   0  0  0  0  0  0  0  0  0  0  0  0
    7.5478   48.3871  130.9107 C   0  0  0  0  0  0  0  0  0  0  0  0
    7.2718   49.6082  130.6705 O   0  0  0  0  0  0  0  0  0  0  0  0
    8.3627   48.1009  132.0315 N   0  0  0  0  0  0  0  0  0  0  0  0
    8.4994   46.9509  132.1703 H   0  0  0  0  0  0  0  0  0  0  0  0
    9.0533   48.7309  133.0286 C   0  0  0  0  0  0  0  0  0  0  0  0
   10.4207   48.5056  133.4344 C   0  0  0  0  0  0  0  0  0  0  0  0
   11.1336   49.6178  133.5837 O   0  0  0  0  0  0  0  0  0  0  0  0
   11.0891   47.3376  133.6956 N   0  0  0  0  0  0  0  0  0  0  0  0
   10.4312   46.4100  133.7551 H   0  0  0  0  0  0  0  0  0  0  0  0
   12.4221   47.0057  134.0587 C   0  0  0  0  0  0  0  0  0  0  0  0
   13.0340   45.7452  133.6676 C   0  0  0  0  0  0  0  0  0  0  0  0
   12.8740   45.2309  132.6082 O   0  0  0  0  0  0  0  0  0  0  0  0
   12.6668   47.1792  135.5644 C   0  0  0  0  0  0  0  0  0  0  0  0
   13.7936   48.0498  135.7917 C   0  0  0  0  0  0  0  0  0  0  0  0
   15.0674   47.5683  135.9501 O   0  0  0  0  0  0  0  0  0  0  0  0
   13.6290   49.3223  135.8694 O   0  0  0  0  0  0  0  0  0  0  0  0
   15.5202   46.9033  135.3139 H   0  0  0  0  0  0  0  0  0  0  0  0
    8.1961   48.6034  134.3778 C   0  0  0  0  0  0  0  0  0  0  0  0
    8.5943   47.4438  135.1307 C   0  0  0  0  0  0  0  0  0  0  0  0
    8.3760   46.1310  134.6218 O   0  0  0  0  0  0  0  0  0  0  0  0
    9.1247   47.4900  136.2411 O   0  0  0  0  0  0  0  0  0  0  0  0
    7.9811   46.0706  133.6565 H   0  0  0  0  0  0  0  0  0  0  0  0
    5.5308   47.3266  130.0160 C   0  0  0  0  0  0  0  0  0  0  0  0
    4.6608   49.6058  129.1844 C   0  0  0  0  0  0  0  0  0  0  0  0
    5.0473   48.2225  128.9308 C   0  0  0  0  0  0  0  0  0  0  0  0
    6.2601   48.3069  127.9384 C   0  0  0  0  0  0  0  0  0  0  0  0
 48 49  1  0  0  0
 49 50  1  0  0  0
 49 47  1  0  0  0
 47  1  1  0  0  0
  1  2  1  0  0  0
  2  3  1  0  0  0
  3  4  2  0  0  0
  3  6  1  0  0  0
  6  7  1  0  0  0
  7  8  1  0  0  0
  8  9  2  0  0  0
  8 11  1  0  0  0
 11 12  2  0  0  0
 12 13  1  0  0  0
 13 14  2  0  0  0
 14 15  1  0  0  0
 15 16  2  0  0  0
 16 17  1  0  0  0
 17 18  2  0  0  0
 18 19  1  0  0  0
 19 20  2  0  0  0
  6 21  1  0  0  0
 21 22  1  0  0  0
 21 23  1  0  0  0
 21 24  1  0  0  0
  1 25  1  0  0  0
 25 26  2  0  0  0
 25 27  1  0  0  0
 27 29  1  0  0  0
 29 42  1  0  0  0
 42 43  1  0  0  0
 43 44  1  0  0  0
 43 45  2  0  0  0
 29 30  1  0  0  0
 30 31  2  0  0  0
 30 32  1  0  0  0
 32 34  1  0  0  0
 34 37  1  0  0  0
 37 38  1  0  0  0
 38 39  1  0  0  0
 38 40  2  0  0  0
 34 35  1  0  0  0
 35 36  2  0  0  0
 20 11  1  0  0  0
 19 14  1  0  0  0
  2  5  1  0  0  0
  7 10  1  0  0  0
 27 28  1  0  0  0
 44 46  1  0  0  0
 32 33  1  0  0  0
 39 41  1  0  0  0
M  END
> <minimizedAffinity>
20.15934

> <CNNscore>
0.4691740274

> <CNNaffinity>
7.1313271523

> <CNN_VS>
3.3458335400

> <CNNaffinity_variance>
1.2628809214

$$$$
[H]OC(=O)C([H])([H])[C@@]([H])(C([H])=O)N([H])C(=O)[C@@]([H])(N([H])C(=O)[C@@]([H])(N([H])C(=O)[C@@]([H])(N([H])C(=O)c1c([H])c([H])c2c([H])c([H])c([H])c([H])c2c1[H])C(C([H])([H])[H])(C([H])([H])[H])C([H])([H])[H])C([H])([H])C([H])(C([H])([H])[H])C([H])([H])[H])C([H])([H])C(=O)O[H]


 50 51  0  0  0  0  0  0  0  0999 V2000
    7.1282   46.5376  129.4342 C   0  0  0  0  0  0  0  0  0  0  0  0
    7.3671   45.2131  129.7054 N   0  0  0  0  0  0  0  0  0  0  0  0
    8.1499   44.5412  130.6447 C   0  0  0  0  0  0  0  0  0  0  0  0
    8.7562   45.2849  131.4850 O   0  0  0  0  0  0  0  0  0  0  0  0
    6.8035   44.5245  129.0682 H   0  0  0  0  0  0  0  0  0  0  0  0
    8.3458   43.0768  130.7128 C   0  0  0  0  0  0  0  0  0  0  0  0
    9.3148   42.5364  129.8207 N   0  0  0  0  0  0  0  0  0  0  0  0
    9.8247   43.2594  128.6580 C   0  0  0  0  0  0  0  0  0  0  0  0
    9.5360   44.4183  128.4110 O   0  0  0  0  0  0  0  0  0  0  0  0
    9.6721   41.5449  129.9930 H   0  0  0  0  0  0  0  0  0  0  0  0
   10.7006   42.5038  127.7726 C   0  0  0  0  0  0  0  0  0  0  0  0
   11.7700   43.2080  127.1582 C   0  0  0  0  0  0  0  0  0  0  0  0
   12.6049   42.6549  126.2770 C   0  0  0  0  0  0  0  0  0  0  0  0
   12.4705   41.3303  125.8950 C   0  0  0  0  0  0  0  0  0  0  0  0
   13.3115   40.7557  124.9971 C   0  0  0  0  0  0  0  0  0  0  0  0
   13.1444   39.4415  124.6558 C   0  0  0  0  0  0  0  0  0  0  0  0
   12.1201   38.6610  125.2181 C   0  0  0  0  0  0  0  0  0  0  0  0
   11.3000   39.3001  126.1210 C   0  0  0  0  0  0  0  0  0  0  0  0
   11.4599   40.5932  126.4558 C   0  0  0  0  0  0  0  0  0  0  0  0
   10.5810   41.2032  127.3911 C   0  0  0  0  0  0  0  0  0  0  0  0
    8.6792   42.5108  132.0638 C   0  0  0  0  0  0  0  0  0  0  0  0
    7.5313   41.6971  132.5994 C   0  0  0  0  0  0  0  0  0  0  0  0
    8.6273   43.7931  132.9907 C   0  0  0  0  0  0  0  0  0  0  0  0
   10.0339   41.9896  132.2936 C   0  0  0  0  0  0  0  0  0  0  0  0
    8.0702   47.6306  129.5091 C   0  0  0  0  0  0  0  0  0  0  0  0
    8.4230   48.3206  128.4970 O   0  0  0  0  0  0  0  0  0  0  0  0
    8.6435   47.9526  130.7620 N   0  0  0  0  0  0  0  0  0  0  0  0
    8.2035   47.2846  131.6109 H   0  0  0  0  0  0  0  0  0  0  0  0
    9.5539   48.8032  131.3240 C   0  0  0  0  0  0  0  0  0  0  0  0
   10.3617   48.5806  132.5001 C   0  0  0  0  0  0  0  0  0  0  0  0
   10.6616   49.6884  133.1711 O   0  0  0  0  0  0  0  0  0  0  0  0
   10.8551   47.4175  133.0321 N   0  0  0  0  0  0  0  0  0  0  0  0
   10.4395   46.4632  132.5702 H   0  0  0  0  0  0  0  0  0  0  0  0
   11.6781   47.0944  134.1444 C   0  0  0  0  0  0  0  0  0  0  0  0
   12.3084   48.1223  134.9583 C   0  0  0  0  0  0  0  0  0  0  0  0
   11.7550   48.7091  135.8311 O   0  0  0  0  0  0  0  0  0  0  0  0
   12.7678   46.0778  133.7759 C   0  0  0  0  0  0  0  0  0  0  0  0
   12.1709   44.8437  133.3286 C   0  0  0  0  0  0  0  0  0  0  0  0
   11.9452   43.7921  134.1787 O   0  0  0  0  0  0  0  0  0  0  0  0
   11.8432   44.6874  132.0955 O   0  0  0  0  0  0  0  0  0  0  0  0
   11.4670   43.8685  135.0829 H   0  0  0  0  0  0  0  0  0  0  0  0
    8.8213   50.2054  131.5861 C   0  0  0  0  0  0  0  0  0  0  0  0
    7.6700   50.3493  130.7352 C   0  0  0  0  0  0  0  0  0  0  0  0
    7.8075   50.7869  129.3863 O   0  0  0  0  0  0  0  0  0  0  0  0
    6.5134   50.1268  131.0947 O   0  0  0  0  0  0  0  0  0  0  0  0
    8.7848   50.9247  129.0438 H   0  0  0  0  0  0  0  0  0  0  0  0
    5.8236   46.9248  130.1783 C   0  0  0  0  0  0  0  0  0  0  0  0
    3.3130   46.7112  129.6354 C   0  0  0  0  0  0  0  0  0  0  0  0
    4.6729   47.0662  129.2456 C   0  0  0  0  0  0  0  0  0  0  0  0
    4.6252   48.6029  128.9303 C   0  0  0  0  0  0  0  0  0  0  0  0
 48 49  1  0  0  0
 49 50  1  0  0  0
 49 47  1  0  0  0
 47  1  1  0  0  0
  1  2  1  0  0  0
  2  3  1  0  0  0
  3  4  2  0  0  0
  3  6  1  0  0  0
  6  7  1  0  0  0
  7  8  1  0  0  0
  8  9  2  0  0  0
  8 11  1  0  0  0
 11 12  2  0  0  0
 12 13  1  0  0  0
 13 14  2  0  0  0
 14 15  1  0  0  0
 15 16  2  0  0  0
 16 17  1  0  0  0
 17 18  2  0  0  0
 18 19  1  0  0  0
 19 20  2  0  0  0
  6 21  1  0  0  0
 21 22  1  0  0  0
 21 23  1  0  0  0
 21 24  1  0  0  0
  1 25  1  0  0  0
 25 26  2  0  0  0
 25 27  1  0  0  0
 27 29  1  0  0  0
 29 42  1  0  0  0
 42 43  1  0  0  0
 43 44  1  0  0  0
 43 45  2  0  0  0
 29 30  1  0  0  0
 30 31  2  0  0  0
 30 32  1  0  0  0
 32 34  1  0  0  0
 34 37  1  0  0  0
 37 38  1  0  0  0
 38 39  1  0  0  0
 38 40  2  0  0  0
 34 35  1  0  0  0
 35 36  2  0  0  0
 20 11  1  0  0  0
 19 14  1  0  0  0
  2  5  1  0  0  0
  7 10  1  0  0  0
 27 28  1  0  0  0
 44 46  1  0  0  0
 32 33  1  0  0  0
 39 41  1  0  0  0
M  END
> <minimizedAffinity>
20.08692

> <CNNscore>
0.4639955759

> <CNNaffinity>
7.3120665550

> <CNN_VS>
3.3927664757

> <CNNaffinity_variance>
1.2344805002

$$$$
[H]OC(=O)C([H])([H])[C@@]([H])(C([H])=O)N([H])C(=O)[C@@]([H])(N([H])C(=O)[C@@]([H])(N([H])C(=O)[C@@]([H])(N([H])C(=O)c1c([H])c([H])c2c([H])c([H])c([H])c([H])c2c1[H])C(C([H])([H])[H])(C([H])([H])[H])C([H])([H])[H])C([H])([H])C([H])(C([H])([H])[H])C([H])([H])[H])C([H])([H])C(=O)O[H]


 50 51  0  0  0  0  0  0  0  0999 V2000
   10.1383   49.2102  133.1869 C   0  0  0  0  0  0  0  0  0  0  0  0
    9.6126   49.2617  131.9196 N   0  0  0  0  0  0  0  0  0  0  0  0
    8.9043   50.2259  131.2018 C   0  0  0  0  0  0  0  0  0  0  0  0
    8.7265   51.3362  131.8039 O   0  0  0  0  0  0  0  0  0  0  0  0
    9.8105   48.3652  131.3240 H   0  0  0  0  0  0  0  0  0  0  0  0
    8.3357   50.0464  129.8484 C   0  0  0  0  0  0  0  0  0  0  0  0
    8.5979   48.7939  129.2243 N   0  0  0  0  0  0  0  0  0  0  0  0
    8.3703   47.5086  129.8806 C   0  0  0  0  0  0  0  0  0  0  0  0
    7.8476   47.4002  130.9771 O   0  0  0  0  0  0  0  0  0  0  0  0
    9.0029   48.7896  128.2362 H   0  0  0  0  0  0  0  0  0  0  0  0
    8.8287   46.3326  129.1531 C   0  0  0  0  0  0  0  0  0  0  0  0
    7.8470   45.3814  128.7680 C   0  0  0  0  0  0  0  0  0  0  0  0
    8.1365   44.2316  128.1570 C   0  0  0  0  0  0  0  0  0  0  0  0
    9.4447   43.8863  127.8606 C   0  0  0  0  0  0  0  0  0  0  0  0
    9.7536   42.7180  127.2415 C   0  0  0  0  0  0  0  0  0  0  0  0
   11.0600   42.4230  126.9621 C   0  0  0  0  0  0  0  0  0  0  0  0
   12.1003   43.3065  127.2966 C   0  0  0  0  0  0  0  0  0  0  0  0
   11.7238   44.4736  127.9230 C   0  0  0  0  0  0  0  0  0  0  0  0
   10.4403   44.7646  128.2020 C   0  0  0  0  0  0  0  0  0  0  0  0
   10.1092   45.9830  128.8540 C   0  0  0  0  0  0  0  0  0  0  0  0
    6.8554   50.2642  129.7128 C   0  0  0  0  0  0  0  0  0  0  0  0
    6.2629   49.2988  128.7210 C   0  0  0  0  0  0  0  0  0  0  0  0
    6.7855   51.6304  128.9160 C   0  0  0  0  0  0  0  0  0  0  0  0
    6.0717   50.5454  130.9236 C   0  0  0  0  0  0  0  0  0  0  0  0
   11.0951   48.2568  133.7000 C   0  0  0  0  0  0  0  0  0  0  0  0
   11.6701   48.3823  134.8307 O   0  0  0  0  0  0  0  0  0  0  0  0
   11.4249   47.1293  132.9113 N   0  0  0  0  0  0  0  0  0  0  0  0
   10.7974   47.1046  131.9283 H   0  0  0  0  0  0  0  0  0  0  0  0
   12.2441   46.0353  132.9161 C   0  0  0  0  0  0  0  0  0  0  0  0
   12.0031   44.7488  132.3059 C   0  0  0  0  0  0  0  0  0  0  0  0
   12.9737   44.3422  131.4935 O   0  0  0  0  0  0  0  0  0  0  0  0
   10.9456   43.8866  132.4386 N   0  0  0  0  0  0  0  0  0  0  0  0
   10.2163   44.1450  133.2741 H   0  0  0  0  0  0  0  0  0  0  0  0
   10.5957   42.6344  131.8652 C   0  0  0  0  0  0  0  0  0  0  0  0
    9.9710   42.5368  130.5551 C   0  0  0  0  0  0  0  0  0  0  0  0
    9.3796   41.5798  130.1721 O   0  0  0  0  0  0  0  0  0  0  0  0
    9.7645   41.7748  132.8280 C   0  0  0  0  0  0  0  0  0  0  0  0
    8.5659   42.4755  133.2175 C   0  0  0  0  0  0  0  0  0  0  0  0
    7.3316   41.8795  133.1927 O   0  0  0  0  0  0  0  0  0  0  0  0
    8.6211   43.7047  133.5897 O   0  0  0  0  0  0  0  0  0  0  0  0
    7.1166   40.9711  133.6178 H   0  0  0  0  0  0  0  0  0  0  0  0
   12.6164   45.7056  134.4406 C   0  0  0  0  0  0  0  0  0  0  0  0
   12.3023   44.3386  134.7611 C   0  0  0  0  0  0  0  0  0  0  0  0
   13.1206   43.2707  134.2920 O   0  0  0  0  0  0  0  0  0  0  0  0
   11.3288   43.9925  135.4312 O   0  0  0  0  0  0  0  0  0  0  0  0
   13.9836   43.5457  133.7715 H   0  0  0  0  0  0  0  0  0  0  0  0
    8.9506   49.3376  134.1762 C   0  0  0  0  0  0  0  0  0  0  0  0
    8.7291   46.8032  133.7629 C   0  0  0  0  0  0  0  0  0  0  0  0
    8.2713   48.0327  134.3999 C   0  0  0  0  0  0  0  0  0  0  0  0
    8.4260   47.7825  135.9415 C   0  0  0  0  0  0  0  0  0  0  0  0
 48 49  1  0  0  0
 49 50  1  0  0  0
 49 47  1  0  0  0
 47  1  1  0  0  0
  1  2  1  0  0  0
  2  3  1  0  0  0
  3  4  2  0  0  0
  3  6  1  0  0  0
  6  7  1  0  0  0
  7  8  1  0  0  0
  8  9  2  0  0  0
  8 11  1  0  0  0
 11 12  2  0  0  0
 12 13  1  0  0  0
 13 14  2  0  0  0
 14 15  1  0  0  0
 15 16  2  0  0  0
 16 17  1  0  0  0
 17 18  2  0  0  0
 18 19  1  0  0  0
 19 20  2  0  0  0
  6 21  1  0  0  0
 21 22  1  0  0  0
 21 23  1  0  0  0
 21 24  1  0  0  0
  1 25  1  0  0  0
 25 26  2  0  0  0
 25 27  1  0  0  0
 27 29  1  0  0  0
 29 42  1  0  0  0
 42 43  1  0  0  0
 43 44  1  0  0  0
 43 45  2  0  0  0
 29 30  1  0  0  0
 30 31  2  0  0  0
 30 32  1  0  0  0
 32 34  1  0  0  0
 34 37  1  0  0  0
 37 38  1  0  0  0
 38 39  1  0  0  0
 38 40  2  0  0  0
 34 35  1  0  0  0
 35 36  2  0  0  0
 20 11  1  0  0  0
 19 14  1  0  0  0
  2  5  1  0  0  0
  7 10  1  0  0  0
 27 28  1  0  0  0
 44 46  1  0  0  0
 32 33  1  0  0  0
 39 41  1  0  0  0
M  END
> <minimizedAffinity>
9.23507

> <CNNscore>
0.4509781897

> <CNNaffinity>
7.3216376305

> <CNN_VS>
3.3018989563

> <CNNaffinity_variance>
0.9256753922

$$$$
[H]OC(=O)C([H])([H])[C@@]([H])(C([H])=O)N([H])C(=O)[C@@]([H])(N([H])C(=O)[C@@]([H])(N([H])C(=O)[C@@]([H])(N([H])C(=O)c1c([H])c([H])c2c([H])c([H])c([H])c([H])c2c1[H])C(C([H])([H])[H])(C([H])([H])[H])C([H])([H])[H])C([H])([H])C([H])(C([H])([H])[H])C([H])([H])[H])C([H])([H])C(=O)O[H]


 50 51  0  0  0  0  0  0  0  0999 V2000
   12.7398   45.9579  133.6548 C   0  0  0  0  0  0  0  0  0  0  0  0
   11.5385   46.5798  133.8898 N   0  0  0  0  0  0  0  0  0  0  0  0
   11.1550   47.7029  134.6234 C   0  0  0  0  0  0  0  0  0  0  0  0
   12.1071   48.3494  135.1733 O   0  0  0  0  0  0  0  0  0  0  0  0
   10.6939   46.1168  133.3704 H   0  0  0  0  0  0  0  0  0  0  0  0
    9.7647   48.1637  134.8284 C   0  0  0  0  0  0  0  0  0  0  0  0
    8.9572   48.2451  133.6587 N   0  0  0  0  0  0  0  0  0  0  0  0
    9.4574   48.7217  132.3714 C   0  0  0  0  0  0  0  0  0  0  0  0
   10.6282   48.9964  132.1684 O   0  0  0  0  0  0  0  0  0  0  0  0
    7.9284   47.9671  133.7269 H   0  0  0  0  0  0  0  0  0  0  0  0
    8.4615   48.8777  131.3198 C   0  0  0  0  0  0  0  0  0  0  0  0
    8.0993   50.2021  130.9571 C   0  0  0  0  0  0  0  0  0  0  0  0
    7.1552   50.4867  130.0587 C   0  0  0  0  0  0  0  0  0  0  0  0
    6.4507   49.4825  129.4156 C   0  0  0  0  0  0  0  0  0  0  0  0
    5.4856   49.7582  128.5012 C   0  0  0  0  0  0  0  0  0  0  0  0
    4.8212   48.7327  127.8858 C   0  0  0  0  0  0  0  0  0  0  0  0
    5.1167   47.3892  128.1727 C   0  0  0  0  0  0  0  0  0  0  0  0
    6.1038   47.1741  129.1084 C   0  0  0  0  0  0  0  0  0  0  0  0
    6.7562   48.1807  129.7177 C   0  0  0  0  0  0  0  0  0  0  0  0
    7.7643   47.9005  130.6792 C   0  0  0  0  0  0  0  0  0  0  0  0
    8.9492   47.3972  135.8307 C   0  0  0  0  0  0  0  0  0  0  0  0
    9.8386   46.5768  136.7265 C   0  0  0  0  0  0  0  0  0  0  0  0
    8.2734   46.2805  134.9348 C   0  0  0  0  0  0  0  0  0  0  0  0
    7.7981   48.0620  136.4572 C   0  0  0  0  0  0  0  0  0  0  0  0
   13.3451   45.6783  132.3730 C   0  0  0  0  0  0  0  0  0  0  0  0
   14.5455   45.9939  132.0825 O   0  0  0  0  0  0  0  0  0  0  0  0
   12.5721   45.0314  131.3800 N   0  0  0  0  0  0  0  0  0  0  0  0
   11.5143   44.7525  131.7847 H   0  0  0  0  0  0  0  0  0  0  0  0
   12.6512   44.6107  130.0819 C   0  0  0  0  0  0  0  0  0  0  0  0
   11.5986   44.0447  129.2713 C   0  0  0  0  0  0  0  0  0  0  0  0
   11.7633   44.2239  127.9643 O   0  0  0  0  0  0  0  0  0  0  0  0
   10.4730   43.3515  129.6340 N   0  0  0  0  0  0  0  0  0  0  0  0
   10.4348   43.0346  130.7271 H   0  0  0  0  0  0  0  0  0  0  0  0
    9.3712   42.7922  128.9325 C   0  0  0  0  0  0  0  0  0  0  0  0
    8.7240   43.4926  127.8339 C   0  0  0  0  0  0  0  0  0  0  0  0
    8.6198   44.6748  127.7708 O   0  0  0  0  0  0  0  0  0  0  0  0
    8.2627   42.3232  129.8854 C   0  0  0  0  0  0  0  0  0  0  0  0
    8.2377   43.1467  131.0688 C   0  0  0  0  0  0  0  0  0  0  0  0
    8.1880   42.6109  132.3297 O   0  0  0  0  0  0  0  0  0  0  0  0
    8.2453   44.4285  130.9713 O   0  0  0  0  0  0  0  0  0  0  0  0
    8.8158   41.8764  132.6739 H   0  0  0  0  0  0  0  0  0  0  0  0
   13.8615   43.5640  129.9764 C   0  0  0  0  0  0  0  0  0  0  0  0
   14.8524   44.0187  129.0375 C   0  0  0  0  0  0  0  0  0  0  0  0
   15.6906   43.0923  128.3526 O   0  0  0  0  0  0  0  0  0  0  0  0
   15.0578   45.2030  128.7696 O   0  0  0  0  0  0  0  0  0  0  0  0
   15.4934   42.0803  128.5212 H   0  0  0  0  0  0  0  0  0  0  0  0
   12.7679   44.6792  134.5322 C   0  0  0  0  0  0  0  0  0  0  0  0
   10.9437   43.0665  133.6868 C   0  0  0  0  0  0  0  0  0  0  0  0
   11.4224   44.0544  134.6471 C   0  0  0  0  0  0  0  0  0  0  0  0
   11.4676   43.3042  136.0249 C   0  0  0  0  0  0  0  0  0  0  0  0
 48 49  1  0  0  0
 49 50  1  0  0  0
 49 47  1  0  0  0
 47  1  1  0  0  0
  1  2  1  0  0  0
  2  3  1  0  0  0
  3  4  2  0  0  0
  3  6  1  0  0  0
  6  7  1  0  0  0
  7  8  1  0  0  0
  8  9  2  0  0  0
  8 11  1  0  0  0
 11 12  2  0  0  0
 12 13  1  0  0  0
 13 14  2  0  0  0
 14 15  1  0  0  0
 15 16  2  0  0  0
 16 17  1  0  0  0
 17 18  2  0  0  0
 18 19  1  0  0  0
 19 20  2  0  0  0
  6 21  1  0  0  0
 21 22  1  0  0  0
 21 23  1  0  0  0
 21 24  1  0  0  0
  1 25  1  0  0  0
 25 26  2  0  0  0
 25 27  1  0  0  0
 27 29  1  0  0  0
 29 42  1  0  0  0
 42 43  1  0  0  0
 43 44  1  0  0  0
 43 45  2  0  0  0
 29 30  1  0  0  0
 30 31  2  0  0  0
 30 32  1  0  0  0
 32 34  1  0  0  0
 34 37  1  0  0  0
 37 38  1  0  0  0
 38 39  1  0  0  0
 38 40  2  0  0  0
 34 35  1  0  0  0
 35 36  2  0  0  0
 20 11  1  0  0  0
 19 14  1  0  0  0
  2  5  1  0  0  0
  7 10  1  0  0  0
 27 28  1  0  0  0
 44 46  1  0  0  0
 32 33  1  0  0  0
 39 41  1  0  0  0
M  END
> <minimizedAffinity>
13.22546

> <CNNscore>
0.4171894789

> <CNNaffinity>
7.1635384560

> <CNN_VS>
2.9885528088

> <CNNaffinity_variance>
1.0327266455

$$$$
[H]OC(=O)C([H])([H])[C@@]([H])(C([H])=O)N([H])C(=O)[C@@]([H])(N([H])C(=O)[C@@]([H])(N([H])C(=O)[C@@]([H])(N([H])C(=O)c1c([H])c([H])c2c([H])c([H])c([H])c([H])c2c1[H])C(C([H])([H])[H])(C([H])([H])[H])C([H])([H])[H])C([H])([H])C([H])(C([H])([H])[H])C([H])([H])[H])C([H])([H])C(=O)O[H]


 50 51  0  0  0  0  0  0  0  0999 V2000
    8.7071   46.1678  134.8757 C   0  0  0  0  0  0  0  0  0  0  0  0
    8.7052   45.1703  133.9323 N   0  0  0  0  0  0  0  0  0  0  0  0
    7.9397   44.9127  132.7946 C   0  0  0  0  0  0  0  0  0  0  0  0
    7.0704   45.8004  132.5068 O   0  0  0  0  0  0  0  0  0  0  0  0
    9.4903   44.4224  134.0807 H   0  0  0  0  0  0  0  0  0  0  0  0
    8.0398   43.7065  131.9446 C   0  0  0  0  0  0  0  0  0  0  0  0
    9.2128   43.6050  131.1441 N   0  0  0  0  0  0  0  0  0  0  0  0
   10.1159   44.7272  130.9001 C   0  0  0  0  0  0  0  0  0  0  0  0
    9.9930   45.8146  131.4385 O   0  0  0  0  0  0  0  0  0  0  0  0
    9.4349   42.6701  130.6782 H   0  0  0  0  0  0  0  0  0  0  0  0
   11.1861   44.4862  129.9416 C   0  0  0  0  0  0  0  0  0  0  0  0
   10.8085   44.1850  128.6060 C   0  0  0  0  0  0  0  0  0  0  0  0
   11.6824   43.8793  127.6457 C   0  0  0  0  0  0  0  0  0  0  0  0
   13.0425   43.8300  127.9025 C   0  0  0  0  0  0  0  0  0  0  0  0
   13.9425   43.5176  126.9350 C   0  0  0  0  0  0  0  0  0  0  0  0
   15.2773   43.4887  127.2339 C   0  0  0  0  0  0  0  0  0  0  0  0
   15.7473   43.7813  128.5254 C   0  0  0  0  0  0  0  0  0  0  0  0
   14.7867   44.0899  129.4625 C   0  0  0  0  0  0  0  0  0  0  0  0
   13.4733   44.1156  129.1722 C   0  0  0  0  0  0  0  0  0  0  0  0
   12.5247   44.4370  130.1802 C   0  0  0  0  0  0  0  0  0  0  0  0
    7.9126   42.3840  132.6459 C   0  0  0  0  0  0  0  0  0  0  0  0
    9.2701   41.8176  132.9667 C   0  0  0  0  0  0  0  0  0  0  0  0
    7.4299   41.4275  131.4804 C   0  0  0  0  0  0  0  0  0  0  0  0
    6.8634   42.2246  133.6624 C   0  0  0  0  0  0  0  0  0  0  0  0
    8.5555   47.5868  134.6500 C   0  0  0  0  0  0  0  0  0  0  0  0
    8.2567   48.4139  135.5728 O   0  0  0  0  0  0  0  0  0  0  0  0
    8.7354   48.0926  133.3408 N   0  0  0  0  0  0  0  0  0  0  0  0
    9.0530   47.2472  132.6026 H   0  0  0  0  0  0  0  0  0  0  0  0
    8.6657   49.2623  132.6374 C   0  0  0  0  0  0  0  0  0  0  0  0
    7.9568   49.5102  131.4039 C   0  0  0  0  0  0  0  0  0  0  0  0
    7.9939   50.7765  131.0008 O   0  0  0  0  0  0  0  0  0  0  0  0
    7.2666   48.6518  130.5878 N   0  0  0  0  0  0  0  0  0  0  0  0
    7.3991   47.5470  130.8300 H   0  0  0  0  0  0  0  0  0  0  0  0
    6.5133   48.7947  129.3916 C   0  0  0  0  0  0  0  0  0  0  0  0
    5.0586   48.7787  129.3929 C   0  0  0  0  0  0  0  0  0  0  0  0
    4.3847   49.7574  129.4054 O   0  0  0  0  0  0  0  0  0  0  0  0
    6.9754   47.8167  128.3022 C   0  0  0  0  0  0  0  0  0  0  0  0
    7.9337   46.8834  128.8406 C   0  0  0  0  0  0  0  0  0  0  0  0
    7.5524   45.7151  129.4482 O   0  0  0  0  0  0  0  0  0  0  0  0
    9.1930   47.1336  128.7789 O   0  0  0  0  0  0  0  0  0  0  0  0
    6.8968   45.0375  129.0444 H   0  0  0  0  0  0  0  0  0  0  0  0
   10.1645   49.7598  132.3591 C   0  0  0  0  0  0  0  0  0  0  0  0
   10.6707   49.2016  131.1334 C   0  0  0  0  0  0  0  0  0  0  0  0
   11.0903   47.8415  131.0674 O   0  0  0  0  0  0  0  0  0  0  0  0
   10.7905   49.8345  130.0839 O   0  0  0  0  0  0  0  0  0  0  0  0
   10.9424   47.2712  131.9302 H   0  0  0  0  0  0  0  0  0  0  0  0
    9.9275   45.9164  135.7992 C   0  0  0  0  0  0  0  0  0  0  0  0
   10.9968   44.0841  134.3356 C   0  0  0  0  0  0  0  0  0  0  0  0
   11.0834   45.3519  135.0513 C   0  0  0  0  0  0  0  0  0  0  0  0
   11.3868   46.4287  133.9505 C   0  0  0  0  0  0  0  0  0  0  0  0
 48 49  1  0  0  0
 49 50  1  0  0  0
 49 47  1  0  0  0
 47  1  1  0  0  0
  1  2  1  0  0  0
  2  3  1  0  0  0
  3  4  2  0  0  0
  3  6  1  0  0  0
  6  7  1  0  0  0
  7  8  1  0  0  0
  8  9  2  0  0  0
  8 11  1  0  0  0
 11 12  2  0  0  0
 12 13  1  0  0  0
 13 14  2  0  0  0
 14 15  1  0  0  0
 15 16  2  0  0  0
 16 17  1  0  0  0
 17 18  2  0  0  0
 18 19  1  0  0  0
 19 20  2  0  0  0
  6 21  1  0  0  0
 21 22  1  0  0  0
 21 23  1  0  0  0
 21 24  1  0  0  0
  1 25  1  0  0  0
 25 26  2  0  0  0
 25 27  1  0  0  0
 27 29  1  0  0  0
 29 42  1  0  0  0
 42 43  1  0  0  0
 43 44  1  0  0  0
 43 45  2  0  0  0
 29 30  1  0  0  0
 30 31  2  0  0  0
 30 32  1  0  0  0
 32 34  1  0  0  0
 34 37  1  0  0  0
 37 38  1  0  0  0
 38 39  1  0  0  0
 38 40  2  0  0  0
 34 35  1  0  0  0
 35 36  2  0  0  0
 20 11  1  0  0  0
 19 14  1  0  0  0
  2  5  1  0  0  0
  7 10  1  0  0  0
 27 28  1  0  0  0
 44 46  1  0  0  0
 32 33  1  0  0  0
 39 41  1  0  0  0
M  END
> <minimizedAffinity>
12.33508

> <CNNscore>
0.4161268473

> <CNNaffinity>
7.2686767578

> <CNN_VS>
3.0246915817

> <CNNaffinity_variance>
0.8150970340

$$$$
[H]OC(=O)C([H])([H])[C@@]([H])(C([H])=O)N([H])C(=O)[C@@]([H])(N([H])C(=O)[C@@]([H])(N([H])C(=O)[C@@]([H])(N([H])C(=O)c1c([H])c([H])c2c([H])c([H])c([H])c([H])c2c1[H])C(C([H])([H])[H])(C([H])([H])[H])C([H])([H])[H])C([H])([H])C([H])(C([H])([H])[H])C([H])([H])[H])C([H])([H])C(=O)O[H]


 50 51  0  0  0  0  0  0  0  0999 V2000
    9.8906   49.6099  132.1965 C   0  0  0  0  0  0  0  0  0  0  0  0
    9.2332   49.0319  131.1387 N   0  0  0  0  0  0  0  0  0  0  0  0
    8.4083   49.5209  130.1254 C   0  0  0  0  0  0  0  0  0  0  0  0
    8.2414   50.7853  130.1171 O   0  0  0  0  0  0  0  0  0  0  0  0
    9.4104   47.9561  131.0449 H   0  0  0  0  0  0  0  0  0  0  0  0
    7.7103   48.7000  129.1123 C   0  0  0  0  0  0  0  0  0  0  0  0
    8.0092   47.3081  129.1256 N   0  0  0  0  0  0  0  0  0  0  0  0
    9.3684   46.7815  129.2252 C   0  0  0  0  0  0  0  0  0  0  0  0
   10.3479   47.4861  129.4023 O   0  0  0  0  0  0  0  0  0  0  0  0
    7.2051   46.6113  129.0351 H   0  0  0  0  0  0  0  0  0  0  0  0
    9.5042   45.3386  129.0779 C   0  0  0  0  0  0  0  0  0  0  0  0
   10.2401   44.8646  127.9596 C   0  0  0  0  0  0  0  0  0  0  0  0
   10.3853   43.5707  127.6694 C   0  0  0  0  0  0  0  0  0  0  0  0
    9.8072   42.5894  128.4576 C   0  0  0  0  0  0  0  0  0  0  0  0
    9.9448   41.2691  128.1721 C   0  0  0  0  0  0  0  0  0  0  0  0
    9.3618   40.3350  128.9841 C   0  0  0  0  0  0  0  0  0  0  0  0
    8.6219   40.7077  130.1192 C   0  0  0  0  0  0  0  0  0  0  0  0
    8.5177   42.0604  130.3551 C   0  0  0  0  0  0  0  0  0  0  0  0
    9.0871   42.9811  129.5563 C   0  0  0  0  0  0  0  0  0  0  0  0
    8.9438   44.3649  129.8456 C   0  0  0  0  0  0  0  0  0  0  0  0
    6.2108   48.7918  129.0974 C   0  0  0  0  0  0  0  0  0  0  0  0
    5.7311   49.8416  130.0641 C   0  0  0  0  0  0  0  0  0  0  0  0
    5.7823   47.4561  129.8312 C   0  0  0  0  0  0  0  0  0  0  0  0
    5.5130   48.7007  127.8074 C   0  0  0  0  0  0  0  0  0  0  0  0
   10.7520   48.9564  133.1549 C   0  0  0  0  0  0  0  0  0  0  0  0
   11.0181   49.4436  134.3024 O   0  0  0  0  0  0  0  0  0  0  0  0
   11.3431   47.7185  132.8082 N   0  0  0  0  0  0  0  0  0  0  0  0
   10.9827   47.3588  131.7588 H   0  0  0  0  0  0  0  0  0  0  0  0
   12.2074   46.7815  133.3011 C   0  0  0  0  0  0  0  0  0  0  0  0
   12.1698   45.3521  133.0988 C   0  0  0  0  0  0  0  0  0  0  0  0
   13.1452   44.8870  132.3245 O   0  0  0  0  0  0  0  0  0  0  0  0
   11.3004   44.4089  133.5821 N   0  0  0  0  0  0  0  0  0  0  0  0
   10.5904   44.7793  134.3918 H   0  0  0  0  0  0  0  0  0  0  0  0
   11.1520   43.0053  133.4179 C   0  0  0  0  0  0  0  0  0  0  0  0
   11.8762   42.2708  132.3921 C   0  0  0  0  0  0  0  0  0  0  0  0
   11.6054   41.1646  132.0526 O   0  0  0  0  0  0  0  0  0  0  0  0
    9.6770   42.5926  133.3137 C   0  0  0  0  0  0  0  0  0  0  0  0
    8.8213   43.6996  133.6622 C   0  0  0  0  0  0  0  0  0  0  0  0
    7.4629   43.6566  133.4823 O   0  0  0  0  0  0  0  0  0  0  0  0
    9.3194   44.7820  134.1444 O   0  0  0  0  0  0  0  0  0  0  0  0
    6.8579   42.8943  133.8064 H   0  0  0  0  0  0  0  0  0  0  0  0
   12.2847   46.9712  134.8916 C   0  0  0  0  0  0  0  0  0  0  0  0
   13.6469   47.1423  135.3220 C   0  0  0  0  0  0  0  0  0  0  0  0
   14.0608   48.3348  135.9830 O   0  0  0  0  0  0  0  0  0  0  0  0
   14.5360   46.3082  135.1485 O   0  0  0  0  0  0  0  0  0  0  0  0
   13.3098   49.0301  136.1924 H   0  0  0  0  0  0  0  0  0  0  0  0
    8.8581   50.4934  132.9442 C   0  0  0  0  0  0  0  0  0  0  0  0
    9.4001   52.9995  133.2064 C   0  0  0  0  0  0  0  0  0  0  0  0
    9.5097   51.6197  133.6660 C   0  0  0  0  0  0  0  0  0  0  0  0
    8.8387   51.6015  135.0846 C   0  0  0  0  0  0  0  0  0  0  0  0
 48 49  1  0  0  0
 49 50  1  0  0  0
 49 47  1  0  0  0
 47  1  1  0  0  0
  1  2  1  0  0  0
  2  3  1  0  0  0
  3  4  2  0  0  0
  3  6  1  0  0  0
  6  7  1  0  0  0
  7  8  1  0  0  0
  8  9  2  0  0  0
  8 11  1  0  0  0
 11 12  2  0  0  0
 12 13  1  0  0  0
 13 14  2  0  0  0
 14 15  1  0  0  0
 15 16  2  0  0  0
 16 17  1  0  0  0
 17 18  2  0  0  0
 18 19  1  0  0  0
 19 20  2  0  0  0
  6 21  1  0  0  0
 21 22  1  0  0  0
 21 23  1  0  0  0
 21 24  1  0  0  0
  1 25  1  0  0  0
 25 26  2  0  0  0
 25 27  1  0  0  0
 27 29  1  0  0  0
 29 42  1  0  0  0
 42 43  1  0  0  0
 43 44  1  0  0  0
 43 45  2  0  0  0
 29 30  1  0  0  0
 30 31  2  0  0  0
 30 32  1  0  0  0
 32 34  1  0  0  0
 34 37  1  0  0  0
 37 38  1  0  0  0
 38 39  1  0  0  0
 38 40  2  0  0  0
 34 35  1  0  0  0
 35 36  2  0  0  0
 20 11  1  0  0  0
 19 14  1  0  0  0
  2  5  1  0  0  0
  7 10  1  0  0  0
 27 28  1  0  0  0
 44 46  1  0  0  0
 32 33  1  0  0  0
 39 41  1  0  0  0
M  END
> <minimizedAffinity>
21.47284

> <CNNscore>
0.4139921069

> <CNNaffinity>
7.2098784447

> <CNN_VS>
2.9848327637

> <CNNaffinity_variance>
0.8422416449

$$$$
[H]OC(=O)C([H])([H])[C@@]([H])(C([H])=O)N([H])C(=O)[C@@]([H])(N([H])C(=O)[C@@]([H])(N([H])C(=O)[C@@]([H])(N([H])C(=O)c1c([H])c([H])c2c([H])c([H])c([H])c([H])c2c1[H])C(C([H])([H])[H])(C([H])([H])[H])C([H])([H])[H])C([H])([H])C([H])(C([H])([H])[H])C([H])([H])[H])C([H])([H])C(=O)O[H]


 50 51  0  0  0  0  0  0  0  0999 V2000
    7.7631   46.6633  129.0752 C   0  0  0  0  0  0  0  0  0  0  0  0
    7.7008   45.3477  129.4629 N   0  0  0  0  0  0  0  0  0  0  0  0
    8.5635   44.4994  130.1578 C   0  0  0  0  0  0  0  0  0  0  0  0
    9.6367   45.0401  130.5852 O   0  0  0  0  0  0  0  0  0  0  0  0
    6.7608   44.8543  129.1972 H   0  0  0  0  0  0  0  0  0  0  0  0
    8.3437   43.0568  130.3982 C   0  0  0  0  0  0  0  0  0  0  0  0
    8.8945   42.1731  129.4274 N   0  0  0  0  0  0  0  0  0  0  0  0
    9.5200   42.6322  128.1894 C   0  0  0  0  0  0  0  0  0  0  0  0
    9.7084   43.8091  127.9312 O   0  0  0  0  0  0  0  0  0  0  0  0
    8.8287   41.1209  129.5976 H   0  0  0  0  0  0  0  0  0  0  0  0
    9.8988   41.5910  127.2436 C   0  0  0  0  0  0  0  0  0  0  0  0
    8.9538   41.2469  126.2409 C   0  0  0  0  0  0  0  0  0  0  0  0
    9.1449   40.2684  125.3547 C   0  0  0  0  0  0  0  0  0  0  0  0
   10.3021   39.5073  125.3647 C   0  0  0  0  0  0  0  0  0  0  0  0
   10.5081   38.5067  124.4703 C   0  0  0  0  0  0  0  0  0  0  0  0
   11.6705   37.7865  124.5139 C   0  0  0  0  0  0  0  0  0  0  0  0
   12.6687   38.0598  125.4645 C   0  0  0  0  0  0  0  0  0  0  0  0
   12.4011   39.0850  126.3440 C   0  0  0  0  0  0  0  0  0  0  0  0
   11.2574   39.7924  126.3055 C   0  0  0  0  0  0  0  0  0  0  0  0
   11.0321   40.8380  127.2410 C   0  0  0  0  0  0  0  0  0  0  0  0
    8.7937   42.5266  131.7299 C   0  0  0  0  0  0  0  0  0  0  0  0
    7.8083   41.5218  132.2646 C   0  0  0  0  0  0  0  0  0  0  0  0
    8.5475   43.7628  132.6877 C   0  0  0  0  0  0  0  0  0  0  0  0
   10.2206   42.2342  131.9251 C   0  0  0  0  0  0  0  0  0  0  0  0
    8.7436   47.6476  129.4718 C   0  0  0  0  0  0  0  0  0  0  0  0
    9.3505   48.4034  128.6438 O   0  0  0  0  0  0  0  0  0  0  0  0
    9.0609   47.7802  130.8443 N   0  0  0  0  0  0  0  0  0  0  0  0
    8.4049   47.0717  131.4987 H   0  0  0  0  0  0  0  0  0  0  0  0
    9.8903   48.4765  131.6781 C   0  0  0  0  0  0  0  0  0  0  0  0
   10.5270   48.0054  132.8857 C   0  0  0  0  0  0  0  0  0  0  0  0
   10.9381   48.9750  133.6970 O   0  0  0  0  0  0  0  0  0  0  0  0
   10.7633   46.7289  133.3258 N   0  0  0  0  0  0  0  0  0  0  0  0
   10.2431   45.9104  132.7289 H   0  0  0  0  0  0  0  0  0  0  0  0
   11.4044   46.1627  134.4605 C   0  0  0  0  0  0  0  0  0  0  0  0
   12.4158   45.1248  134.3336 C   0  0  0  0  0  0  0  0  0  0  0  0
   13.5646   45.3410  134.1200 O   0  0  0  0  0  0  0  0  0  0  0  0
   10.3930   45.6828  135.5109 C   0  0  0  0  0  0  0  0  0  0  0  0
    9.1329   46.3626  135.3403 C   0  0  0  0  0  0  0  0  0  0  0  0
    8.9566   47.6738  135.7000 O   0  0  0  0  0  0  0  0  0  0  0  0
    8.1181   45.7422  134.8528 O   0  0  0  0  0  0  0  0  0  0  0  0
    9.5776   48.4410  135.4211 H   0  0  0  0  0  0  0  0  0  0  0  0
    9.1374   49.8255  132.1079 C   0  0  0  0  0  0  0  0  0  0  0  0
    8.1329   50.1822  131.1416 C   0  0  0  0  0  0  0  0  0  0  0  0
    8.4975   50.6786  129.8568 O   0  0  0  0  0  0  0  0  0  0  0  0
    6.9208   50.1029  131.3439 O   0  0  0  0  0  0  0  0  0  0  0  0
    9.5201   50.6984  129.6434 H   0  0  0  0  0  0  0  0  0  0  0  0
    6.3383   47.2532  129.2422 C   0  0  0  0  0  0  0  0  0  0  0  0
    6.2634   48.8941  127.2560 C   0  0  0  0  0  0  0  0  0  0  0  0
    6.2395   48.6316  128.6904 C   0  0  0  0  0  0  0  0  0  0  0  0
    4.8371   49.1379  129.1805 C   0  0  0  0  0  0  0  0  0  0  0  0
 48 49  1  0  0  0
 49 50  1  0  0  0
 49 47  1  0  0  0
 47  1  1  0  0  0
  1  2  1  0  0  0
  2  3  1  0  0  0
  3  4  2  0  0  0
  3  6  1  0  0  0
  6  7  1  0  0  0
  7  8  1  0  0  0
  8  9  2  0  0  0
  8 11  1  0  0  0
 11 12  2  0  0  0
 12 13  1  0  0  0
 13 14  2  0  0  0
 14 15  1  0  0  0
 15 16  2  0  0  0
 16 17  1  0  0  0
 17 18  2  0  0  0
 18 19  1  0  0  0
 19 20  2  0  0  0
  6 21  1  0  0  0
 21 22  1  0  0  0
 21 23  1  0  0  0
 21 24  1  0  0  0
  1 25  1  0  0  0
 25 26  2  0  0  0
 25 27  1  0  0  0
 27 29  1  0  0  0
 29 42  1  0  0  0
 42 43  1  0  0  0
 43 44  1  0  0  0
 43 45  2  0  0  0
 29 30  1  0  0  0
 30 31  2  0  0  0
 30 32  1  0  0  0
 32 34  1  0  0  0
 34 37  1  0  0  0
 37 38  1  0  0  0
 38 39  1  0  0  0
 38 40  2  0  0  0
 34 35  1  0  0  0
 35 36  2  0  0  0
 20 11  1  0  0  0
 19 14  1  0  0  0
  2  5  1  0  0  0
  7 10  1  0  0  0
 27 28  1  0  0  0
 44 46  1  0  0  0
 32 33  1  0  0  0
 39 41  1  0  0  0
M  END
> <minimizedAffinity>
21.08380

> <CNNscore>
0.4052374065

> <CNNaffinity>
7.3580856323

> <CNN_VS>
2.9817714691

> <CNNaffinity_variance>
1.5753736496

$$$$
[H]OC(=O)C([H])([H])[C@@]([H])(C([H])=O)N([H])C(=O)[C@@]([H])(N([H])C(=O)[C@@]([H])(N([H])C(=O)[C@@]([H])(N([H])C(=O)c1c([H])c([H])c2c([H])c([H])c([H])c([H])c2c1[H])C(C([H])([H])[H])(C([H])([H])[H])C([H])([H])[H])C([H])([H])C([H])(C([H])([H])[H])C([H])([H])[H])C([H])([H])C(=O)O[H]


 50 51  0  0  0  0  0  0  0  0999 V2000
    9.3356   45.7778  134.5583 C   0  0  0  0  0  0  0  0  0  0  0  0
    9.4469   44.9052  133.5042 N   0  0  0  0  0  0  0  0  0  0  0  0
    9.7565   43.5490  133.3963 C   0  0  0  0  0  0  0  0  0  0  0  0
    9.9363   42.9386  134.5016 O   0  0  0  0  0  0  0  0  0  0  0  0
    9.2179   45.3557  132.5335 H   0  0  0  0  0  0  0  0  0  0  0  0
    9.9174   42.8008  132.1308 C   0  0  0  0  0  0  0  0  0  0  0  0
   10.0139   43.5895  130.9495 N   0  0  0  0  0  0  0  0  0  0  0  0
    9.5529   43.1320  129.6407 C   0  0  0  0  0  0  0  0  0  0  0  0
    8.9610   42.0795  129.4700 O   0  0  0  0  0  0  0  0  0  0  0  0
   10.4663   44.5547  131.0144 H   0  0  0  0  0  0  0  0  0  0  0  0
    9.8605   44.0058  128.5165 C   0  0  0  0  0  0  0  0  0  0  0  0
   10.4944   45.2429  128.8076 C   0  0  0  0  0  0  0  0  0  0  0  0
   10.7717   46.1631  127.8825 C   0  0  0  0  0  0  0  0  0  0  0  0
   10.4437   45.9639  126.5516 C   0  0  0  0  0  0  0  0  0  0  0  0
   10.7178   46.8932  125.6003 C   0  0  0  0  0  0  0  0  0  0  0  0
   10.3819   46.6491  124.2967 C   0  0  0  0  0  0  0  0  0  0  0  0
    9.7601   45.4495  123.9107 C   0  0  0  0  0  0  0  0  0  0  0  0
    9.5078   44.5476  124.9202 C   0  0  0  0  0  0  0  0  0  0  0  0
    9.8338   44.7866  126.2034 C   0  0  0  0  0  0  0  0  0  0  0  0
    9.5461   43.8212  127.2056 C   0  0  0  0  0  0  0  0  0  0  0  0
   11.0670   41.8357  132.0683 C   0  0  0  0  0  0  0  0  0  0  0  0
   10.7638   40.7055  131.1209 C   0  0  0  0  0  0  0  0  0  0  0  0
   10.9791   41.1124  133.4737 C   0  0  0  0  0  0  0  0  0  0  0  0
   12.4354   42.3712  132.0554 C   0  0  0  0  0  0  0  0  0  0  0  0
    8.8634   47.1428  134.5191 C   0  0  0  0  0  0  0  0  0  0  0  0
    8.4323   47.7636  135.5456 O   0  0  0  0  0  0  0  0  0  0  0  0
    8.8657   47.8303  133.2824 N   0  0  0  0  0  0  0  0  0  0  0  0
    9.3277   47.1737  132.4362 H   0  0  0  0  0  0  0  0  0  0  0  0
    8.5060   49.0304  132.7361 C   0  0  0  0  0  0  0  0  0  0  0  0
    7.6431   49.2609  131.6013 C   0  0  0  0  0  0  0  0  0  0  0  0
    7.9697   48.5611  130.5192 O   0  0  0  0  0  0  0  0  0  0  0  0
    6.5466   50.0729  131.4693 N   0  0  0  0  0  0  0  0  0  0  0  0
    6.1576   50.5177  132.4428 H   0  0  0  0  0  0  0  0  0  0  0  0
    5.6628   50.3980  130.4053 C   0  0  0  0  0  0  0  0  0  0  0  0
    5.4656   49.5087  129.2711 C   0  0  0  0  0  0  0  0  0  0  0  0
    4.4045   49.2694  128.7925 O   0  0  0  0  0  0  0  0  0  0  0  0
    5.9365   51.7987  129.8396 C   0  0  0  0  0  0  0  0  0  0  0  0
    6.8876   51.7251  128.7584 C   0  0  0  0  0  0  0  0  0  0  0  0
    7.6594   50.6134  128.5398 O   0  0  0  0  0  0  0  0  0  0  0  0
    7.0521   52.7237  127.9658 O   0  0  0  0  0  0  0  0  0  0  0  0
    7.2958   49.6560  128.4823 H   0  0  0  0  0  0  0  0  0  0  0  0
    9.8483   49.8430  132.4054 C   0  0  0  0  0  0  0  0  0  0  0  0
   10.5647   49.2295  131.3189 C   0  0  0  0  0  0  0  0  0  0  0  0
   10.9952   47.8737  131.3997 O   0  0  0  0  0  0  0  0  0  0  0  0
   10.8645   49.8093  130.2747 O   0  0  0  0  0  0  0  0  0  0  0  0
   10.7003   47.3465  132.2521 H   0  0  0  0  0  0  0  0  0  0  0  0
   10.6715   45.7130  135.3438 C   0  0  0  0  0  0  0  0  0  0  0  0
    9.1458   45.0654  137.3177 C   0  0  0  0  0  0  0  0  0  0  0  0
   10.4737   45.2312  136.7377 C   0  0  0  0  0  0  0  0  0  0  0  0
   11.1075   43.7955  136.7376 C   0  0  0  0  0  0  0  0  0  0  0  0
 48 49  1  0  0  0
 49 50  1  0  0  0
 49 47  1  0  0  0
 47  1  1  0  0  0
  1  2  1  0  0  0
  2  3  1  0  0  0
  3  4  2  0  0  0
  3  6  1  0  0  0
  6  7  1  0  0  0
  7  8  1  0  0  0
  8  9  2  0  0  0
  8 11  1  0  0  0
 11 12  2  0  0  0
 12 13  1  0  0  0
 13 14  2  0  0  0
 14 15  1  0  0  0
 15 16  2  0  0  0
 16 17  1  0  0  0
 17 18  2  0  0  0
 18 19  1  0  0  0
 19 20  2  0  0  0
  6 21  1  0  0  0
 21 22  1  0  0  0
 21 23  1  0  0  0
 21 24  1  0  0  0
  1 25  1  0  0  0
 25 26  2  0  0  0
 25 27  1  0  0  0
 27 29  1  0  0  0
 29 42  1  0  0  0
 42 43  1  0  0  0
 43 44  1  0  0  0
 43 45  2  0  0  0
 29 30  1  0  0  0
 30 31  2  0  0  0
 30 32  1  0  0  0
 32 34  1  0  0  0
 34 37  1  0  0  0
 37 38  1  0  0  0
 38 39  1  0  0  0
 38 40  2  0  0  0
 34 35  1  0  0  0
 35 36  2  0  0  0
 20 11  1  0  0  0
 19 14  1  0  0  0
  2  5  1  0  0  0
  7 10  1  0  0  0
 27 28  1  0  0  0
 44 46  1  0  0  0
 32 33  1  0  0  0
 39 41  1  0  0  0
M  END
> <minimizedAffinity>
25.66626

> <CNNscore>
0.3758612871

> <CNNaffinity>
7.2077088356

> <CNN_VS>
2.7090988159

> <CNNaffinity_variance>
0.9709163904

$$$$
[H]c1nc(N([H])c2c([H])c([H])c(C3([H])N(C([H])([H])[H])C([H])([H])N(Cl)C([H])([H])C3([H])[H])c(Cl)c2[H])c([H])c([H])c1Br


 24 26  0  0  0  0  0  0  0  0999 V2000
    9.5874   47.6726  130.3650 C   0  0  0  0  0  0  0  0  0  0  0  0
   10.1590   46.7672  129.4884 C   0  0  0  0  0  0  0  0  0  0  0  0
   10.5747   47.2677  127.8246 Cl  0  0  0  0  0  0  0  0  0  0  0  0
   10.4359   45.4745  129.8543 C   0  0  0  0  0  0  0  0  0  0  0  0
   10.1589   44.9965  131.1178 C   0  0  0  0  0  0  0  0  0  0  0  0
    9.5947   45.8780  132.0040 C   0  0  0  0  0  0  0  0  0  0  0  0
    9.3145   47.1905  131.6245 C   0  0  0  0  0  0  0  0  0  0  0  0
    7.1779   49.6781  130.8042 C   0  0  0  0  0  0  0  0  0  0  0  0
    6.5795   49.3468  129.5580 N   0  0  0  0  0  0  0  0  0  0  0  0
    5.0739   48.5415  129.6335 Cl  0  0  0  0  0  0  0  0  0  0  0  0
    7.4709   48.7376  128.6044 C   0  0  0  0  0  0  0  0  0  0  0  0
    8.7502   49.4615  128.7507 C   0  0  0  0  0  0  0  0  0  0  0  0
    9.4548   49.0913  130.0146 C   0  0  0  0  0  0  0  0  0  0  0  0
    8.5470   49.6574  131.0371 N   0  0  0  0  0  0  0  0  0  0  0  0
    9.0806   50.8429  131.6688 C   0  0  0  0  0  0  0  0  0  0  0  0
   10.3709   43.6789  131.5715 N   0  0  0  0  0  0  0  0  0  0  0  0
   11.2999   43.2479  131.2830 H   0  0  0  0  0  0  0  0  0  0  0  0
    9.4698   42.9351  132.3261 C   0  0  0  0  0  0  0  0  0  0  0  0
    9.6732   42.4576  133.5653 N   0  0  0  0  0  0  0  0  0  0  0  0
    8.7649   41.7663  134.2605 C   0  0  0  0  0  0  0  0  0  0  0  0
    7.4985   41.4985  133.7094 C   0  0  0  0  0  0  0  0  0  0  0  0
    6.2360   40.5123  134.7160 Br  0  0  0  0  0  0  0  0  0  0  0  0
    7.2292   41.9635  132.4477 C   0  0  0  0  0  0  0  0  0  0  0  0
    8.2108   42.6647  131.7915 C   0  0  0  0  0  0  0  0  0  0  0  0
  8  9  1  0  0  0
  9 10  1  0  0  0
  9 11  1  0  0  0
 11 12  1  0  0  0
 12 13  1  0  0  0
 13  1  1  0  0  0
  1  2  2  0  0  0
  2  3  1  0  0  0
  2  4  1  0  0  0
  4  5  2  0  0  0
  5 16  1  0  0  0
 16 18  1  0  0  0
 18 19  2  0  0  0
 19 20  1  0  0  0
 20 21  2  0  0  0
 21 22  1  0  0  0
 21 23  1  0  0  0
 23 24  2  0  0  0
  5  6  1  0  0  0
  6  7  2  0  0  0
 13 14  1  0  0  0
 14 15  1  0  0  0
 14  8  1  0  0  0
  7  1  1  0  0  0
 24 18  1  0  0  0
 16 17  1  0  0  0
M  END
> <minimizedAffinity>
7.30789

> <CNNscore>
0.4329591095

> <CNNaffinity>
7.3106660843

> <CNN_VS>
3.1652195454

> <CNNaffinity_variance>
2.1355447769

$$$$
[H]c1nc(N([H])c2c([H])c([H])c(C3([H])N(C([H])([H])[H])C([H])([H])N(Cl)C([H])([H])C3([H])[H])c(Cl)c2[H])c([H])c([H])c1Br


 24 26  0  0  0  0  0  0  0  0999 V2000
    9.8499   48.3766  130.7521 C   0  0  0  0  0  0  0  0  0  0  0  0
   10.6347   47.9409  131.8051 C   0  0  0  0  0  0  0  0  0  0  0  0
   11.4667   49.1232  132.8546 Cl  0  0  0  0  0  0  0  0  0  0  0  0
   10.7966   46.6090  132.0905 C   0  0  0  0  0  0  0  0  0  0  0  0
   10.1894   45.6217  131.3434 C   0  0  0  0  0  0  0  0  0  0  0  0
    9.4043   46.0314  130.2962 C   0  0  0  0  0  0  0  0  0  0  0  0
    9.2455   47.3873  130.0111 C   0  0  0  0  0  0  0  0  0  0  0  0
    7.1677   49.9896  131.2268 C   0  0  0  0  0  0  0  0  0  0  0  0
    6.7040   49.7502  129.9044 N   0  0  0  0  0  0  0  0  0  0  0  0
    5.3192   48.7593  129.7575 Cl  0  0  0  0  0  0  0  0  0  0  0  0
    7.7310   49.3867  128.9621 C   0  0  0  0  0  0  0  0  0  0  0  0
    8.8882   50.2404  129.2999 C   0  0  0  0  0  0  0  0  0  0  0  0
    9.5505   49.8009  130.5644 C   0  0  0  0  0  0  0  0  0  0  0  0
    8.5085   50.1110  131.5685 N   0  0  0  0  0  0  0  0  0  0  0  0
    8.8338   51.2621  132.3798 C   0  0  0  0  0  0  0  0  0  0  0  0
   10.3275   44.2322  131.5357 N   0  0  0  0  0  0  0  0  0  0  0  0
   11.2831   43.8364  131.2862 H   0  0  0  0  0  0  0  0  0  0  0  0
    9.3271   43.3822  131.9955 C   0  0  0  0  0  0  0  0  0  0  0  0
    8.3167   42.8760  131.2691 N   0  0  0  0  0  0  0  0  0  0  0  0
    7.3908   42.0421  131.7521 C   0  0  0  0  0  0  0  0  0  0  0  0
    7.4331   41.6323  133.0972 C   0  0  0  0  0  0  0  0  0  0  0  0
    6.1047   40.4555  133.7531 Br  0  0  0  0  0  0  0  0  0  0  0  0
    8.4440   42.1126  133.8896 C   0  0  0  0  0  0  0  0  0  0  0  0
    9.3592   42.9677  133.3264 C   0  0  0  0  0  0  0  0  0  0  0  0
  8  9  1  0  0  0
  9 10  1  0  0  0
  9 11  1  0  0  0
 11 12  1  0  0  0
 12 13  1  0  0  0
 13  1  1  0  0  0
  1  2  2  0  0  0
  2  3  1  0  0  0
  2  4  1  0  0  0
  4  5  2  0  0  0
  5 16  1  0  0  0
 16 18  1  0  0  0
 18 19  2  0  0  0
 19 20  1  0  0  0
 20 21  2  0  0  0
 21 22  1  0  0  0
 21 23  1  0  0  0
 23 24  2  0  0  0
  5  6  1  0  0  0
  6  7  2  0  0  0
 13 14  1  0  0  0
 14 15  1  0  0  0
 14  8  1  0  0  0
  7  1  1  0  0  0
 24 18  1  0  0  0
 16 17  1  0  0  0
M  END
> <minimizedAffinity>
11.29167

> <CNNscore>
0.4292409420

> <CNNaffinity>
7.3717727661

> <CNN_VS>
3.1642665863

> <CNNaffinity_variance>
2.3803102970

$$$$
[H]c1nc(N([H])c2c([H])c([H])c(C3([H])N(C([H])([H])[H])C([H])([H])N(Cl)C([H])([H])C3([H])[H])c(Cl)c2[H])c([H])c([H])c1Br


 24 26  0  0  0  0  0  0  0  0999 V2000
    8.2521   48.1252  132.0991 C   0  0  0  0  0  0  0  0  0  0  0  0
    8.9646   47.8724  133.2580 C   0  0  0  0  0  0  0  0  0  0  0  0
    9.8838   49.1829  134.0512 Cl  0  0  0  0  0  0  0  0  0  0  0  0
    8.9874   46.6320  133.8432 C   0  0  0  0  0  0  0  0  0  0  0  0
    8.3039   45.5592  133.3106 C   0  0  0  0  0  0  0  0  0  0  0  0
    7.5885   45.7881  132.1632 C   0  0  0  0  0  0  0  0  0  0  0  0
    7.5711   47.0516  131.5731 C   0  0  0  0  0  0  0  0  0  0  0  0
    8.5647   49.2518  129.1573 C   0  0  0  0  0  0  0  0  0  0  0  0
    9.9539   49.5038  129.3233 N   0  0  0  0  0  0  0  0  0  0  0  0
   11.0124   48.5533  128.3762 Cl  0  0  0  0  0  0  0  0  0  0  0  0
   10.3902   49.5966  130.6930 C   0  0  0  0  0  0  0  0  0  0  0  0
    9.3180   50.3327  131.3934 C   0  0  0  0  0  0  0  0  0  0  0  0
    8.0994   49.4899  131.5820 C   0  0  0  0  0  0  0  0  0  0  0  0
    7.6349   49.3234  130.1867 N   0  0  0  0  0  0  0  0  0  0  0  0
    6.4505   50.0974  129.8919 C   0  0  0  0  0  0  0  0  0  0  0  0
    8.2996   44.2438  133.8170 N   0  0  0  0  0  0  0  0  0  0  0  0
    7.6638   44.0867  134.6555 H   0  0  0  0  0  0  0  0  0  0  0  0
    9.0574   43.1893  133.3184 C   0  0  0  0  0  0  0  0  0  0  0  0
    9.5444   42.1555  134.0247 N   0  0  0  0  0  0  0  0  0  0  0  0
   10.2492   41.1514  133.4945 C   0  0  0  0  0  0  0  0  0  0  0  0
   10.5222   41.1233  132.1146 C   0  0  0  0  0  0  0  0  0  0  0  0
   11.5276   39.6914  131.3946 Br  0  0  0  0  0  0  0  0  0  0  0  0
   10.0480   42.1500  131.3391 C   0  0  0  0  0  0  0  0  0  0  0  0
    9.3331   43.1495  131.9523 C   0  0  0  0  0  0  0  0  0  0  0  0
  8  9  1  0  0  0
  9 10  1  0  0  0
  9 11  1  0  0  0
 11 12  1  0  0  0
 12 13  1  0  0  0
 13  1  1  0  0  0
  1  2  2  0  0  0
  2  3  1  0  0  0
  2  4  1  0  0  0
  4  5  2  0  0  0
  5 16  1  0  0  0
 16 18  1  0  0  0
 18 19  2  0  0  0
 19 20  1  0  0  0
 20 21  2  0  0  0
 21 22  1  0  0  0
 21 23  1  0  0  0
 23 24  2  0  0  0
  5  6  1  0  0  0
  6  7  2  0  0  0
 13 14  1  0  0  0
 14 15  1  0  0  0
 14  8  1  0  0  0
  7  1  1  0  0  0
 24 18  1  0  0  0
 16 17  1  0  0  0
M  END
> <minimizedAffinity>
11.94124

> <CNNscore>
0.4158975184

> <CNNaffinity>
7.2115621567

> <CNN_VS>
2.9992709160

> <CNNaffinity_variance>
1.7892268896

$$$$
[H]c1nc(N([H])c2c([H])c([H])c(C3([H])N(C([H])([H])[H])C([H])([H])N(Cl)C([H])([H])C3([H])[H])c(Cl)c2[H])c([H])c([H])c1Br


 24 26  0  0  0  0  0  0  0  0999 V2000
    7.4493   47.8750  130.7570 C   0  0  0  0  0  0  0  0  0  0  0  0
    8.5718   48.2679  131.4644 C   0  0  0  0  0  0  0  0  0  0  0  0
    8.8484   49.9961  131.8225 Cl  0  0  0  0  0  0  0  0  0  0  0  0
    9.4975   47.3649  131.9219 C   0  0  0  0  0  0  0  0  0  0  0  0
    9.3680   46.0097  131.7024 C   0  0  0  0  0  0  0  0  0  0  0  0
    8.2610   45.5977  131.0056 C   0  0  0  0  0  0  0  0  0  0  0  0
    7.3247   46.5216  130.5423 C   0  0  0  0  0  0  0  0  0  0  0  0
    5.8270   48.2849  128.0698 C   0  0  0  0  0  0  0  0  0  0  0  0
    6.7761   49.2080  127.5521 N   0  0  0  0  0  0  0  0  0  0  0  0
    7.6576   48.6957  126.1804 Cl  0  0  0  0  0  0  0  0  0  0  0  0
    7.6249   49.8190  128.5427 C   0  0  0  0  0  0  0  0  0  0  0  0
    6.7441   50.0859  129.6981 C   0  0  0  0  0  0  0  0  0  0  0  0
    6.3866   48.8304  130.4238 C   0  0  0  0  0  0  0  0  0  0  0  0
    5.5460   48.1377  129.4220 N   0  0  0  0  0  0  0  0  0  0  0  0
    4.1412   48.1485  129.7621 C   0  0  0  0  0  0  0  0  0  0  0  0
   10.2836   45.0137  132.0982 N   0  0  0  0  0  0  0  0  0  0  0  0
   10.0406   44.5146  133.0058 H   0  0  0  0  0  0  0  0  0  0  0  0
   11.4441   44.6718  131.4118 C   0  0  0  0  0  0  0  0  0  0  0  0
   12.5362   44.0903  131.9352 N   0  0  0  0  0  0  0  0  0  0  0  0
   13.6206   43.7589  131.2278 C   0  0  0  0  0  0  0  0  0  0  0  0
   13.6720   44.0074  129.8440 C   0  0  0  0  0  0  0  0  0  0  0  0
   15.2235   43.5321  128.8709 Br  0  0  0  0  0  0  0  0  0  0  0  0
   12.5852   44.5964  129.2505 C   0  0  0  0  0  0  0  0  0  0  0  0
   11.5065   44.9116  130.0397 C   0  0  0  0  0  0  0  0  0  0  0  0
  8  9  1  0  0  0
  9 10  1  0  0  0
  9 11  1  0  0  0
 11 12  1  0  0  0
 12 13  1  0  0  0
 13  1  1  0  0  0
  1  2  2  0  0  0
  2  3  1  0  0  0
  2  4  1  0  0  0
  4  5  2  0  0  0
  5 16  1  0  0  0
 16 18  1  0  0  0
 18 19  2  0  0  0
 19 20  1  0  0  0
 20 21  2  0  0  0
 21 22  1  0  0  0
 21 23  1  0  0  0
 23 24  2  0  0  0
  5  6  1  0  0  0
  6  7  2  0  0  0
 13 14  1  0  0  0
 14 15  1  0  0  0
 14  8  1  0  0  0
  7  1  1  0  0  0
 24 18  1  0  0  0
 16 17  1  0  0  0
M  END
> <minimizedAffinity>
7.94030

> <CNNscore>
0.3934842944

> <CNNaffinity>
7.0179848671

> <CNN_VS>
2.7614667416

> <CNNaffinity_variance>
1.0476055145

$$$$
[H]c1nc(N([H])c2c([H])c([H])c(C3([H])N(C([H])([H])[H])C([H])([H])N(Cl)C([H])([H])C3([H])[H])c(Cl)c2[H])c([H])c([H])c1Br


 24 26  0  0  0  0  0  0  0  0999 V2000
   10.1047   45.4719  133.7829 C   0  0  0  0  0  0  0  0  0  0  0  0
   10.7142   44.2305  133.8288 C   0  0  0  0  0  0  0  0  0  0  0  0
   11.3316   43.5897  135.3779 Cl  0  0  0  0  0  0  0  0  0  0  0  0
   10.8588   43.4483  132.7113 C   0  0  0  0  0  0  0  0  0  0  0  0
   10.4081   43.8522  131.4722 C   0  0  0  0  0  0  0  0  0  0  0  0
    9.7980   45.0786  131.4042 C   0  0  0  0  0  0  0  0  0  0  0  0
    9.6559   45.8691  132.5443 C   0  0  0  0  0  0  0  0  0  0  0  0
    8.6079   48.2311  134.1925 C   0  0  0  0  0  0  0  0  0  0  0  0
    9.8069   48.9840  134.0632 N   0  0  0  0  0  0  0  0  0  0  0  0
    9.9212   49.9918  132.6876 Cl  0  0  0  0  0  0  0  0  0  0  0  0
   11.0165   48.2341  134.2857 C   0  0  0  0  0  0  0  0  0  0  0  0
   10.7132   47.3338  135.4169 C   0  0  0  0  0  0  0  0  0  0  0  0
    9.8062   46.2191  135.0100 C   0  0  0  0  0  0  0  0  0  0  0  0
    8.5510   46.9481  134.7215 N   0  0  0  0  0  0  0  0  0  0  0  0
    7.5372   46.7444  135.7313 C   0  0  0  0  0  0  0  0  0  0  0  0
   10.5461   43.1372  130.2653 N   0  0  0  0  0  0  0  0  0  0  0  0
   10.7105   42.0921  130.3781 H   0  0  0  0  0  0  0  0  0  0  0  0
   10.4996   43.6951  128.9920 C   0  0  0  0  0  0  0  0  0  0  0  0
   11.2998   44.6647  128.5183 N   0  0  0  0  0  0  0  0  0  0  0  0
   11.2311   45.1528  127.2761 C   0  0  0  0  0  0  0  0  0  0  0  0
   10.2835   44.6516  126.3650 C   0  0  0  0  0  0  0  0  0  0  0  0
   10.2069   45.3671  124.6151 Br  0  0  0  0  0  0  0  0  0  0  0  0
    9.4396   43.6573  126.7888 C   0  0  0  0  0  0  0  0  0  0  0  0
    9.5658   43.2057  128.0796 C   0  0  0  0  0  0  0  0  0  0  0  0
  8  9  1  0  0  0
  9 10  1  0  0  0
  9 11  1  0  0  0
 11 12  1  0  0  0
 12 13  1  0  0  0
 13  1  1  0  0  0
  1  2  2  0  0  0
  2  3  1  0  0  0
  2  4  1  0  0  0
  4  5  2  0  0  0
  5 16  1  0  0  0
 16 18  1  0  0  0
 18 19  2  0  0  0
 19 20  1  0  0  0
 20 21  2  0  0  0
 21 22  1  0  0  0
 21 23  1  0  0  0
 23 24  2  0  0  0
  5  6  1  0  0  0
  6  7  2  0  0  0
 13 14  1  0  0  0
 14 15  1  0  0  0
 14  8  1  0  0  0
  7  1  1  0  0  0
 24 18  1  0  0  0
 16 17  1  0  0  0
M  END
> <minimizedAffinity>
12.65664

> <CNNscore>
0.3809078336

> <CNNaffinity>
7.2701544762

> <CNN_VS>
2.7692587376

> <CNNaffinity_variance>
1.8316810131

$$$$
[H]c1nc(N([H])c2c([H])c([H])c(C3([H])N(C([H])([H])[H])C([H])([H])N(Cl)C([H])([H])C3([H])[H])c(Cl)c2[H])c([H])c([H])c1Br


 24 26  0  0  0  0  0  0  0  0999 V2000
    7.7913   47.5722  130.5351 C   0  0  0  0  0  0  0  0  0  0  0  0
    8.8605   48.1243  131.2183 C   0  0  0  0  0  0  0  0  0  0  0  0
    8.8382   49.8506  131.6774 Cl  0  0  0  0  0  0  0  0  0  0  0  0
    9.9578   47.3827  131.5755 C   0  0  0  0  0  0  0  0  0  0  0  0
   10.0644   46.0416  131.2729 C   0  0  0  0  0  0  0  0  0  0  0  0
    9.0145   45.4731  130.5983 C   0  0  0  0  0  0  0  0  0  0  0  0
    7.9026   46.2336  130.2371 C   0  0  0  0  0  0  0  0  0  0  0  0
    5.9792   47.8289  127.9521 C   0  0  0  0  0  0  0  0  0  0  0  0
    6.7160   48.9391  127.4566 N   0  0  0  0  0  0  0  0  0  0  0  0
    7.6006   48.6771  126.0178 Cl  0  0  0  0  0  0  0  0  0  0  0  0
    7.4921   49.6385  128.4483 C   0  0  0  0  0  0  0  0  0  0  0  0
    6.6411   49.6722  129.6552 C   0  0  0  0  0  0  0  0  0  0  0  0
    6.5566   48.3330  130.3111 C   0  0  0  0  0  0  0  0  0  0  0  0
    5.8028   47.5555  129.3024 N   0  0  0  0  0  0  0  0  0  0  0  0
    4.4398   47.2879  129.7019 C   0  0  0  0  0  0  0  0  0  0  0  0
   11.1654   45.2105  131.5629 N   0  0  0  0  0  0  0  0  0  0  0  0
   11.7969   44.9951  130.7342 H   0  0  0  0  0  0  0  0  0  0  0  0
   11.4527   44.6649  132.8098 C   0  0  0  0  0  0  0  0  0  0  0  0
   12.6644   44.5880  133.3847 N   0  0  0  0  0  0  0  0  0  0  0  0
   12.8869   44.0745  134.5983 C   0  0  0  0  0  0  0  0  0  0  0  0
   11.8199   43.5742  135.3668 C   0  0  0  0  0  0  0  0  0  0  0  0
   12.1675   42.8481  137.0791 Br  0  0  0  0  0  0  0  0  0  0  0  0
   10.5570   43.6282  134.8352 C   0  0  0  0  0  0  0  0  0  0  0  0
   10.4035   44.1674  133.5815 C   0  0  0  0  0  0  0  0  0  0  0  0
  8  9  1  0  0  0
  9 10  1  0  0  0
  9 11  1  0  0  0
 11 12  1  0  0  0
 12 13  1  0  0  0
 13  1  1  0  0  0
  1  2  2  0  0  0
  2  3  1  0  0  0
  2  4  1  0  0  0
  4  5  2  0  0  0
  5 16  1  0  0  0
 16 18  1  0  0  0
 18 19  2  0  0  0
 19 20  1  0  0  0
 20 21  2  0  0  0
 21 22  1  0  0  0
 21 23  1  0  0  0
 23 24  2  0  0  0
  5  6  1  0  0  0
  6  7  2  0  0  0
 13 14  1  0  0  0
 14 15  1  0  0  0
 14  8  1  0  0  0
  7  1  1  0  0  0
 24 18  1  0  0  0
 16 17  1  0  0  0
M  END
> <minimizedAffinity>
7.44204

> <CNNscore>
0.3731144369

> <CNNaffinity>
7.1408195496

> <CNN_VS>
2.6643428802

> <CNNaffinity_variance>
0.9647930264

$$$$
[H]c1nc(N([H])c2c([H])c([H])c(C3([H])N(C([H])([H])[H])C([H])([H])N(Cl)C([H])([H])C3([H])[H])c(Cl)c2[H])c([H])c([H])c1Br


 24 26  0  0  0  0  0  0  0  0999 V2000
    9.4163   43.8433  130.8790 C   0  0  0  0  0  0  0  0  0  0  0  0
    9.8485   42.7871  131.6614 C   0  0  0  0  0  0  0  0  0  0  0  0
   10.3940   43.0755  133.3380 Cl  0  0  0  0  0  0  0  0  0  0  0  0
    9.8667   41.4964  131.1973 C   0  0  0  0  0  0  0  0  0  0  0  0
    9.4581   41.1723  129.9208 C   0  0  0  0  0  0  0  0  0  0  0  0
    9.0229   42.2037  129.1287 C   0  0  0  0  0  0  0  0  0  0  0  0
    9.0085   43.5137  129.6069 C   0  0  0  0  0  0  0  0  0  0  0  0
    9.0287   46.6373  129.4420 C   0  0  0  0  0  0  0  0  0  0  0  0
   10.4279   46.8800  129.3766 N   0  0  0  0  0  0  0  0  0  0  0  0
   11.1181   46.9040  127.8133 Cl  0  0  0  0  0  0  0  0  0  0  0  0
   11.2171   46.1104  130.3040 C   0  0  0  0  0  0  0  0  0  0  0  0
   10.4314   46.0839  131.5545 C   0  0  0  0  0  0  0  0  0  0  0  0
    9.2424   45.1869  131.4428 C   0  0  0  0  0  0  0  0  0  0  0  0
    8.4134   45.9144  130.4560 N   0  0  0  0  0  0  0  0  0  0  0  0
    7.2594   46.5500  131.0503 C   0  0  0  0  0  0  0  0  0  0  0  0
    9.4778   39.8859  129.3446 N   0  0  0  0  0  0  0  0  0  0  0  0
    8.7138   39.2287  129.6856 H   0  0  0  0  0  0  0  0  0  0  0  0
   10.4066   39.4389  128.4107 C   0  0  0  0  0  0  0  0  0  0  0  0
   11.4653   38.6492  128.6563 N   0  0  0  0  0  0  0  0  0  0  0  0
   12.3183   38.2262  127.7185 C   0  0  0  0  0  0  0  0  0  0  0  0
   12.1396   38.5972  126.3732 C   0  0  0  0  0  0  0  0  0  0  0  0
   13.3675   37.9872  125.0694 Br  0  0  0  0  0  0  0  0  0  0  0  0
   11.0736   39.4003  126.0585 C   0  0  0  0  0  0  0  0  0  0  0  0
   10.2393   39.7986  127.0741 C   0  0  0  0  0  0  0  0  0  0  0  0
  8  9  1  0  0  0
  9 10  1  0  0  0
  9 11  1  0  0  0
 11 12  1  0  0  0
 12 13  1  0  0  0
 13  1  1  0  0  0
  1  2  2  0  0  0
  2  3  1  0  0  0
  2  4  1  0  0  0
  4  5  2  0  0  0
  5 16  1  0  0  0
 16 18  1  0  0  0
 18 19  2  0  0  0
 19 20  1  0  0  0
 20 21  2  0  0  0
 21 22  1  0  0  0
 21 23  1  0  0  0
 23 24  2  0  0  0
  5  6  1  0  0  0
  6  7  2  0  0  0
 13 14  1  0  0  0
 14 15  1  0  0  0
 14  8  1  0  0  0
  7  1  1  0  0  0
 24 18  1  0  0  0
 16 17  1  0  0  0
M  END
> <minimizedAffinity>
28.03699

> <CNNscore>
0.3711661994

> <CNNaffinity>
6.4830865860

> <CNN_VS>
2.4063026905

> <CNNaffinity_variance>
0.6079252362

$$$$
[H]c1nc(N([H])c2c([H])c([H])c(C3([H])N(C([H])([H])[H])C([H])([H])N(Cl)C([H])([H])C3([H])[H])c(Cl)c2[H])c([H])c([H])c1Br


 24 26  0  0  0  0  0  0  0  0999 V2000
    8.5965   48.1888  130.4965 C   0  0  0  0  0  0  0  0  0  0  0  0
    9.3109   47.7312  131.5896 C   0  0  0  0  0  0  0  0  0  0  0  0
   10.5530   48.7669  132.3484 Cl  0  0  0  0  0  0  0  0  0  0  0  0
    9.0937   46.4912  132.1346 C   0  0  0  0  0  0  0  0  0  0  0  0
    8.1518   45.6228  131.6245 C   0  0  0  0  0  0  0  0  0  0  0  0
    7.4299   46.0572  130.5424 C   0  0  0  0  0  0  0  0  0  0  0  0
    7.6572   47.3186  129.9928 C   0  0  0  0  0  0  0  0  0  0  0  0
    6.5612   50.6057  130.6895 C   0  0  0  0  0  0  0  0  0  0  0  0
    5.9438   50.2798  129.4511 N   0  0  0  0  0  0  0  0  0  0  0  0
    4.3201   49.7526  129.5323 Cl  0  0  0  0  0  0  0  0  0  0  0  0
    6.7383   49.4508  128.5813 C   0  0  0  0  0  0  0  0  0  0  0  0
    8.1198   49.9551  128.7188 C   0  0  0  0  0  0  0  0  0  0  0  0
    8.7199   49.5755  130.0329 C   0  0  0  0  0  0  0  0  0  0  0  0
    7.9002   50.3707  130.9742 N   0  0  0  0  0  0  0  0  0  0  0  0
    8.6162   51.4956  131.5319 C   0  0  0  0  0  0  0  0  0  0  0  0
    7.8861   44.3194  132.0909 N   0  0  0  0  0  0  0  0  0  0  0  0
    6.9090   44.1736  132.4860 H   0  0  0  0  0  0  0  0  0  0  0  0
    8.7915   43.2635  132.0817 C   0  0  0  0  0  0  0  0  0  0  0  0
    9.4378   42.7600  133.1464 N   0  0  0  0  0  0  0  0  0  0  0  0
   10.2829   41.7262  133.0901 C   0  0  0  0  0  0  0  0  0  0  0  0
   10.5436   41.0849  131.8654 C   0  0  0  0  0  0  0  0  0  0  0  0
   11.7494   39.6277  131.8169 Br  0  0  0  0  0  0  0  0  0  0  0  0
    9.9104   41.5511  130.7419 C   0  0  0  0  0  0  0  0  0  0  0  0
    9.0569   42.6188  130.8742 C   0  0  0  0  0  0  0  0  0  0  0  0
  8  9  1  0  0  0
  9 10  1  0  0  0
  9 11  1  0  0  0
 11 12  1  0  0  0
 12 13  1  0  0  0
 13  1  1  0  0  0
  1  2  2  0  0  0
  2  3  1  0  0  0
  2  4  1  0  0  0
  4  5  2  0  0  0
  5 16  1  0  0  0
 16 18  1  0  0  0
 18 19  2  0  0  0
 19 20  1  0  0  0
 20 21  2  0  0  0
 21 22  1  0  0  0
 21 23  1  0  0  0
 23 24  2  0  0  0
  5  6  1  0  0  0
  6  7  2  0  0  0
 13 14  1  0  0  0
 14 15  1  0  0  0
 14  8  1  0  0  0
  7  1  1  0  0  0
 24 18  1  0  0  0
 16 17  1  0  0  0
M  END
> <minimizedAffinity>
7.63747

> <CNNscore>
0.3684185743

> <CNNaffinity>
7.1166548729

> <CNN_VS>
2.6219079494

> <CNNaffinity_variance>
1.0061389208

$$$$
[H]c1nc(N([H])c2c([H])c([H])c(C3([H])N(C([H])([H])[H])C([H])([H])N(Cl)C([H])([H])C3([H])[H])c(Cl)c2[H])c([H])c([H])c1Br


 24 26  0  0  0  0  0  0  0  0999 V2000
    7.1167   47.1066  129.4830 C   0  0  0  0  0  0  0  0  0  0  0  0
    6.3836   46.1763  130.1985 C   0  0  0  0  0  0  0  0  0  0  0  0
    4.6383   46.4327  130.4808 Cl  0  0  0  0  0  0  0  0  0  0  0  0
    6.9509   45.0339  130.7030 C   0  0  0  0  0  0  0  0  0  0  0  0
    8.2879   44.7435  130.5310 C   0  0  0  0  0  0  0  0  0  0  0  0
    9.0330   45.6508  129.8222 C   0  0  0  0  0  0  0  0  0  0  0  0
    8.4497   46.8109  129.3134 C   0  0  0  0  0  0  0  0  0  0  0  0
    8.1379   50.0571  128.9604 C   0  0  0  0  0  0  0  0  0  0  0  0
    7.6151   50.5343  130.1932 N   0  0  0  0  0  0  0  0  0  0  0  0
    8.7624   51.0367  131.3562 Cl  0  0  0  0  0  0  0  0  0  0  0  0
    6.5857   49.7090  130.7712 C   0  0  0  0  0  0  0  0  0  0  0  0
    5.7600   49.2618  129.6309 C   0  0  0  0  0  0  0  0  0  0  0  0
    6.4636   48.2335  128.8071 C   0  0  0  0  0  0  0  0  0  0  0  0
    7.5690   49.0259  128.2239 N   0  0  0  0  0  0  0  0  0  0  0  0
    7.3796   49.3066  126.8188 C   0  0  0  0  0  0  0  0  0  0  0  0
    8.9656   43.6188  131.0438 N   0  0  0  0  0  0  0  0  0  0  0  0
    8.5733   42.6788  130.7367 H   0  0  0  0  0  0  0  0  0  0  0  0
   10.0579   43.6632  131.9038 C   0  0  0  0  0  0  0  0  0  0  0  0
   11.3136   43.2823  131.6156 N   0  0  0  0  0  0  0  0  0  0  0  0
   12.3371   43.3664  132.4708 C   0  0  0  0  0  0  0  0  0  0  0  0
   12.1439   43.8838  133.7647 C   0  0  0  0  0  0  0  0  0  0  0  0
   13.6114   43.9847  134.9547 Br  0  0  0  0  0  0  0  0  0  0  0  0
   10.8836   44.2933  134.1174 C   0  0  0  0  0  0  0  0  0  0  0  0
    9.8793   44.1754  133.1882 C   0  0  0  0  0  0  0  0  0  0  0  0
  8  9  1  0  0  0
  9 10  1  0  0  0
  9 11  1  0  0  0
 11 12  1  0  0  0
 12 13  1  0  0  0
 13  1  1  0  0  0
  1  2  2  0  0  0
  2  3  1  0  0  0
  2  4  1  0  0  0
  4  5  2  0  0  0
  5 16  1  0  0  0
 16 18  1  0  0  0
 18 19  2  0  0  0
 19 20  1  0  0  0
 20 21  2  0  0  0
 21 22  1  0  0  0
 21 23  1  0  0  0
 23 24  2  0  0  0
  5  6  1  0  0  0
  6  7  2  0  0  0
 13 14  1  0  0  0
 14 15  1  0  0  0
 14  8  1  0  0  0
  7  1  1  0  0  0
 24 18  1  0  0  0
 16 17  1  0  0  0
M  END
> <minimizedAffinity>
5.97098

> <CNNscore>
0.3645335734

> <CNNaffinity>
7.2995643616

> <CNN_VS>
2.6609363556

> <CNNaffinity_variance>
1.8809230328

$$$$
[H]OC(=O)c1c([H])c([H])c(-c2c([H])c(/C([H])=N/n3c([H])nc(C([H])([H])[H])c3[H])c([H])c(S(=O)(=O)F)c2[H])c([H])c1OC([H])([H])C1([H])C([H])([H])C1([H])[H]


 33 36  0  0  0  0  0  0  0  0999 V2000
    9.1648   45.2740  128.8104 C   0  0  0  0  0  0  0  0  0  0  0  0
    8.9528   46.1184  129.9053 C   0  0  0  0  0  0  0  0  0  0  0  0
    9.2829   45.6056  131.1439 C   0  0  0  0  0  0  0  0  0  0  0  0
    9.7938   44.3426  131.3394 C   0  0  0  0  0  0  0  0  0  0  0  0
    9.9834   43.5512  130.2274 C   0  0  0  0  0  0  0  0  0  0  0  0
    9.6738   44.0041  128.9626 C   0  0  0  0  0  0  0  0  0  0  0  0
    8.4101   47.4559  129.7301 C   0  0  0  0  0  0  0  0  0  0  0  0
    8.7865   48.5025  130.5280 C   0  0  0  0  0  0  0  0  0  0  0  0
    8.2629   49.7841  130.3603 C   0  0  0  0  0  0  0  0  0  0  0  0
    7.3400   49.9917  129.3586 C   0  0  0  0  0  0  0  0  0  0  0  0
    6.9369   48.9405  128.5280 C   0  0  0  0  0  0  0  0  0  0  0  0
    7.4879   47.6837  128.7361 C   0  0  0  0  0  0  0  0  0  0  0  0
    6.7796   51.3096  129.1603 C   0  0  0  0  0  0  0  0  0  0  0  0
    6.0390   51.8094  130.0303 O   0  0  0  0  0  0  0  0  0  0  0  0
    7.0571   52.0207  128.0154 O   0  0  0  0  0  0  0  0  0  0  0  0
    6.4155   52.6886  127.6133 H   0  0  0  0  0  0  0  0  0  0  0  0
    8.6327   50.8389  131.1532 O   0  0  0  0  0  0  0  0  0  0  0  0
    9.4070   50.6980  132.3324 C   0  0  0  0  0  0  0  0  0  0  0  0
    9.8100   49.2691  132.4948 C   0  0  0  0  0  0  0  0  0  0  0  0
   10.5631   48.9436  133.7851 C   0  0  0  0  0  0  0  0  0  0  0  0
    9.2020   48.4006  133.5379 C   0  0  0  0  0  0  0  0  0  0  0  0
    9.9292   42.9648  127.5551 S   0  0  0  0  0  0  0  0  0  0  0  0
    9.9702   41.5371  127.9610 O   0  0  0  0  0  0  0  0  0  0  0  0
   11.3460   43.4641  126.8231 F   0  0  0  0  0  0  0  0  0  0  0  0
    8.8081   43.2175  126.5890 O   0  0  0  0  0  0  0  0  0  0  0  0
   10.1253   43.8482  132.6899 C   0  0  0  0  0  0  0  0  0  0  0  0
   10.4599   44.6575  133.6339 N   0  0  0  0  0  0  0  0  0  0  0  0
   10.7877   44.2733  134.9350 N   0  0  0  0  0  0  0  0  0  0  0  0
   11.6657   43.3690  135.3685 C   0  0  0  0  0  0  0  0  0  0  0  0
   11.6304   43.3502  136.7464 C   0  0  0  0  0  0  0  0  0  0  0  0
   12.4211   42.5143  137.6856 C   0  0  0  0  0  0  0  0  0  0  0  0
   10.7215   44.2528  137.1434 N   0  0  0  0  0  0  0  0  0  0  0  0
   10.2163   44.8072  136.0278 C   0  0  0  0  0  0  0  0  0  0  0  0
  1  2  2  0  0  0
  2  7  1  0  0  0
  7  8  2  0  0  0
  8  9  1  0  0  0
  9 17  1  0  0  0
 17 18  1  0  0  0
 18 19  1  0  0  0
 19 20  1  0  0  0
 20 21  1  0  0  0
  9 10  2  0  0  0
 10 13  1  0  0  0
 13 14  2  0  0  0
 13 15  1  0  0  0
 10 11  1  0  0  0
 11 12  2  0  0  0
  2  3  1  0  0  0
  3  4  2  0  0  0
  4 26  1  0  0  0
 26 27  2  0  0  0
 27 28  1  0  0  0
 28 29  1  0  0  0
 29 30  2  0  0  0
 30 31  1  0  0  0
 30 32  1  0  0  0
 32 33  2  0  0  0
  4  5  1  0  0  0
  5  6  2  0  0  0
  6 22  1  0  0  0
 22 23  2  0  0  0
 22 24  1  0  0  0
 22 25  2  0  0  0
  6  1  1  0  0  0
 12  7  1  0  0  0
 33 28  1  0  0  0
 21 19  1  0  0  0
 15 16  1  0  0  0
M  END
> <minimizedAffinity>
6.92432

> <CNNscore>
0.6253649592

> <CNNaffinity>
7.8737058640

> <CNN_VS>
4.9239397049

> <CNNaffinity_variance>
1.6341435909

$$$$
[H]OC(=O)c1c([H])c([H])c(-c2c([H])c(/C([H])=N/n3c([H])nc(C([H])([H])[H])c3[H])c([H])c(S(=O)(=O)F)c2[H])c([H])c1OC([H])([H])C1([H])C([H])([H])C1([H])[H]


 33 36  0  0  0  0  0  0  0  0999 V2000
   11.0325   45.8609  129.2894 C   0  0  0  0  0  0  0  0  0  0  0  0
    9.8339   46.0849  129.9748 C   0  0  0  0  0  0  0  0  0  0  0  0
    9.4225   45.0807  130.8283 C   0  0  0  0  0  0  0  0  0  0  0  0
   10.1180   43.9096  131.0258 C   0  0  0  0  0  0  0  0  0  0  0  0
   11.2928   43.7388  130.3262 C   0  0  0  0  0  0  0  0  0  0  0  0
   11.7585   44.7036  129.4585 C   0  0  0  0  0  0  0  0  0  0  0  0
    9.0751   47.3102  129.7830 C   0  0  0  0  0  0  0  0  0  0  0  0
    9.2702   48.4153  130.5667 C   0  0  0  0  0  0  0  0  0  0  0  0
    8.5396   49.5889  130.3829 C   0  0  0  0  0  0  0  0  0  0  0  0
    7.5958   49.6260  129.3799 C   0  0  0  0  0  0  0  0  0  0  0  0
    7.3751   48.5114  128.5637 C   0  0  0  0  0  0  0  0  0  0  0  0
    8.1285   47.3674  128.7873 C   0  0  0  0  0  0  0  0  0  0  0  0
    6.8228   50.8287  129.1653 C   0  0  0  0  0  0  0  0  0  0  0  0
    5.8876   51.1151  129.9391 O   0  0  0  0  0  0  0  0  0  0  0  0
    7.1107   51.6641  128.1104 O   0  0  0  0  0  0  0  0  0  0  0  0
    6.4127   52.2305  127.6507 H   0  0  0  0  0  0  0  0  0  0  0  0
    8.7269   50.7010  131.1616 O   0  0  0  0  0  0  0  0  0  0  0  0
    9.4087   50.6806  132.4044 C   0  0  0  0  0  0  0  0  0  0  0  0
    9.9821   49.3209  132.6347 C   0  0  0  0  0  0  0  0  0  0  0  0
   10.4793   49.0518  134.0554 C   0  0  0  0  0  0  0  0  0  0  0  0
    9.3041   48.3258  133.5076 C   0  0  0  0  0  0  0  0  0  0  0  0
   13.2702   44.4551  128.5756 S   0  0  0  0  0  0  0  0  0  0  0  0
   14.2734   43.7804  129.4376 O   0  0  0  0  0  0  0  0  0  0  0  0
   13.7847   45.9542  128.0459 F   0  0  0  0  0  0  0  0  0  0  0  0
   12.9613   43.6284  127.3610 O   0  0  0  0  0  0  0  0  0  0  0  0
    9.6257   42.8699  131.9505 C   0  0  0  0  0  0  0  0  0  0  0  0
    8.4770   42.9747  132.5228 N   0  0  0  0  0  0  0  0  0  0  0  0
    7.9386   42.0395  133.4078 N   0  0  0  0  0  0  0  0  0  0  0  0
    6.6745   41.6589  133.5916 C   0  0  0  0  0  0  0  0  0  0  0  0
    6.6453   40.7018  134.5833 C   0  0  0  0  0  0  0  0  0  0  0  0
    5.4757   39.9766  135.1416 C   0  0  0  0  0  0  0  0  0  0  0  0
    7.9054   40.5065  134.9986 N   0  0  0  0  0  0  0  0  0  0  0  0
    8.6823   41.3291  134.2727 C   0  0  0  0  0  0  0  0  0  0  0  0
  1  2  2  0  0  0
  2  7  1  0  0  0
  7  8  2  0  0  0
  8  9  1  0  0  0
  9 17  1  0  0  0
 17 18  1  0  0  0
 18 19  1  0  0  0
 19 20  1  0  0  0
 20 21  1  0  0  0
  9 10  2  0  0  0
 10 13  1  0  0  0
 13 14  2  0  0  0
 13 15  1  0  0  0
 10 11  1  0  0  0
 11 12  2  0  0  0
  2  3  1  0  0  0
  3  4  2  0  0  0
  4 26  1  0  0  0
 26 27  2  0  0  0
 27 28  1  0  0  0
 28 29  1  0  0  0
 29 30  2  0  0  0
 30 31  1  0  0  0
 30 32  1  0  0  0
 32 33  2  0  0  0
  4  5  1  0  0  0
  5  6  2  0  0  0
  6 22  1  0  0  0
 22 23  2  0  0  0
 22 24  1  0  0  0
 22 25  2  0  0  0
  6  1  1  0  0  0
 12  7  1  0  0  0
 33 28  1  0  0  0
 21 19  1  0  0  0
 15 16  1  0  0  0
M  END
> <minimizedAffinity>
11.98618

> <CNNscore>
0.5169703960

> <CNNaffinity>
7.5940680504

> <CNN_VS>
3.9259083271

> <CNNaffinity_variance>
2.6523592472

$$$$
[H]OC(=O)c1c([H])c([H])c(-c2c([H])c(/C([H])=N/n3c([H])nc(C([H])([H])[H])c3[H])c([H])c(S(=O)(=O)F)c2[H])c([H])c1OC([H])([H])C1([H])C([H])([H])C1([H])[H]


 33 36  0  0  0  0  0  0  0  0999 V2000
    9.9182   45.5263  131.1042 C   0  0  0  0  0  0  0  0  0  0  0  0
   10.0709   46.8370  131.5685 C   0  0  0  0  0  0  0  0  0  0  0  0
   10.9717   47.0179  132.5990 C   0  0  0  0  0  0  0  0  0  0  0  0
   11.7000   45.9983  133.1685 C   0  0  0  0  0  0  0  0  0  0  0  0
   11.5121   44.7259  132.6743 C   0  0  0  0  0  0  0  0  0  0  0  0
   10.6274   44.4783  131.6463 C   0  0  0  0  0  0  0  0  0  0  0  0
    9.3118   47.9336  130.9895 C   0  0  0  0  0  0  0  0  0  0  0  0
    8.6238   47.7993  129.8138 C   0  0  0  0  0  0  0  0  0  0  0  0
    7.8984   48.8530  129.2586 C   0  0  0  0  0  0  0  0  0  0  0  0
    7.8807   50.0607  129.9214 C   0  0  0  0  0  0  0  0  0  0  0  0
    8.5748   50.2266  131.1247 C   0  0  0  0  0  0  0  0  0  0  0  0
    9.2815   49.1469  131.6357 C   0  0  0  0  0  0  0  0  0  0  0  0
    7.1373   51.1715  129.3703 C   0  0  0  0  0  0  0  0  0  0  0  0
    6.4095   51.8628  130.1104 O   0  0  0  0  0  0  0  0  0  0  0  0
    7.2258   51.4743  128.0309 O   0  0  0  0  0  0  0  0  0  0  0  0
    6.4715   51.8999  127.5120 H   0  0  0  0  0  0  0  0  0  0  0  0
    7.2061   48.7294  128.0823 O   0  0  0  0  0  0  0  0  0  0  0  0
    5.9420   48.0958  127.9809 C   0  0  0  0  0  0  0  0  0  0  0  0
    5.3961   47.8532  129.3498 C   0  0  0  0  0  0  0  0  0  0  0  0
    4.3506   46.7421  129.4506 C   0  0  0  0  0  0  0  0  0  0  0  0
    5.6828   46.5971  130.0928 C   0  0  0  0  0  0  0  0  0  0  0  0
   10.4089   42.8342  131.0333 S   0  0  0  0  0  0  0  0  0  0  0  0
   11.2281   41.8729  131.8140 O   0  0  0  0  0  0  0  0  0  0  0  0
   10.8145   42.8537  129.4123 F   0  0  0  0  0  0  0  0  0  0  0  0
    8.9486   42.4992  131.1296 O   0  0  0  0  0  0  0  0  0  0  0  0
   12.6472   46.2535  134.2713 C   0  0  0  0  0  0  0  0  0  0  0  0
   12.8816   47.4494  134.6871 N   0  0  0  0  0  0  0  0  0  0  0  0
   13.7602   47.7763  135.7211 N   0  0  0  0  0  0  0  0  0  0  0  0
   14.8908   47.1854  136.1071 C   0  0  0  0  0  0  0  0  0  0  0  0
   15.4041   47.8814  137.1806 C   0  0  0  0  0  0  0  0  0  0  0  0
   16.6420   47.6138  137.9564 C   0  0  0  0  0  0  0  0  0  0  0  0
   14.5723   48.9006  137.4411 N   0  0  0  0  0  0  0  0  0  0  0  0
   13.5749   48.8232  136.5431 C   0  0  0  0  0  0  0  0  0  0  0  0
  1  2  2  0  0  0
  2  7  1  0  0  0
  7  8  2  0  0  0
  8  9  1  0  0  0
  9 17  1  0  0  0
 17 18  1  0  0  0
 18 19  1  0  0  0
 19 20  1  0  0  0
 20 21  1  0  0  0
  9 10  2  0  0  0
 10 13  1  0  0  0
 13 14  2  0  0  0
 13 15  1  0  0  0
 10 11  1  0  0  0
 11 12  2  0  0  0
  2  3  1  0  0  0
  3  4  2  0  0  0
  4 26  1  0  0  0
 26 27  2  0  0  0
 27 28  1  0  0  0
 28 29  1  0  0  0
 29 30  2  0  0  0
 30 31  1  0  0  0
 30 32  1  0  0  0
 32 33  2  0  0  0
  4  5  1  0  0  0
  5  6  2  0  0  0
  6 22  1  0  0  0
 22 23  2  0  0  0
 22 24  1  0  0  0
 22 25  2  0  0  0
  6  1  1  0  0  0
 12  7  1  0  0  0
 33 28  1  0  0  0
 21 19  1  0  0  0
 15 16  1  0  0  0
M  END
> <minimizedAffinity>
7.45293

> <CNNscore>
0.4924907386

> <CNNaffinity>
7.5047698021

> <CNN_VS>
3.6960296631

> <CNNaffinity_variance>
1.1684272289

$$$$
[H]OC(=O)c1c([H])c([H])c(-c2c([H])c(/C([H])=N/n3c([H])nc(C([H])([H])[H])c3[H])c([H])c(S(=O)(=O)F)c2[H])c([H])c1OC([H])([H])C1([H])C([H])([H])C1([H])[H]


 33 36  0  0  0  0  0  0  0  0999 V2000
    9.5328   44.5817  130.9958 C   0  0  0  0  0  0  0  0  0  0  0  0
    9.0886   45.1111  129.7796 C   0  0  0  0  0  0  0  0  0  0  0  0
    9.2553   44.3092  128.6682 C   0  0  0  0  0  0  0  0  0  0  0  0
    9.8206   43.0548  128.7056 C   0  0  0  0  0  0  0  0  0  0  0  0
   10.2415   42.5803  129.9289 C   0  0  0  0  0  0  0  0  0  0  0  0
   10.1035   43.3316  131.0766 C   0  0  0  0  0  0  0  0  0  0  0  0
    8.4917   46.4350  129.7084 C   0  0  0  0  0  0  0  0  0  0  0  0
    9.0989   47.5353  130.2509 C   0  0  0  0  0  0  0  0  0  0  0  0
    8.5236   48.8039  130.1841 C   0  0  0  0  0  0  0  0  0  0  0  0
    7.3078   48.9424  129.5509 C   0  0  0  0  0  0  0  0  0  0  0  0
    6.6644   47.8352  128.9874 C   0  0  0  0  0  0  0  0  0  0  0  0
    7.2788   46.5941  129.0807 C   0  0  0  0  0  0  0  0  0  0  0  0
    6.6868   50.2451  129.4656 C   0  0  0  0  0  0  0  0  0  0  0  0
    5.7468   50.5389  130.2309 O   0  0  0  0  0  0  0  0  0  0  0  0
    7.1250   51.1680  128.5439 O   0  0  0  0  0  0  0  0  0  0  0  0
    6.5216   51.8663  128.1346 H   0  0  0  0  0  0  0  0  0  0  0  0
    9.1227   49.9121  130.7236 O   0  0  0  0  0  0  0  0  0  0  0  0
    9.6185   49.9660  132.0506 C   0  0  0  0  0  0  0  0  0  0  0  0
    9.8613   48.5786  132.5474 C   0  0  0  0  0  0  0  0  0  0  0  0
   10.5697   48.4814  133.8990 C   0  0  0  0  0  0  0  0  0  0  0  0
    9.1579   48.0439  133.7439 C   0  0  0  0  0  0  0  0  0  0  0  0
   10.6529   42.6944  132.6318 S   0  0  0  0  0  0  0  0  0  0  0  0
   11.5511   43.6658  133.3059 O   0  0  0  0  0  0  0  0  0  0  0  0
   11.4021   41.2317  132.3292 F   0  0  0  0  0  0  0  0  0  0  0  0
    9.4378   42.4152  133.4681 O   0  0  0  0  0  0  0  0  0  0  0  0
    9.9751   42.2446  127.4817 C   0  0  0  0  0  0  0  0  0  0  0  0
   10.2660   40.9917  127.5425 N   0  0  0  0  0  0  0  0  0  0  0  0
   10.4296   40.1564  126.4364 N   0  0  0  0  0  0  0  0  0  0  0  0
    9.5425   39.7484  125.5291 C   0  0  0  0  0  0  0  0  0  0  0  0
   10.1855   38.9296  124.6256 C   0  0  0  0  0  0  0  0  0  0  0  0
    9.6257   38.2338  123.4389 C   0  0  0  0  0  0  0  0  0  0  0  0
   11.4719   38.8456  124.9951 N   0  0  0  0  0  0  0  0  0  0  0  0
   11.6052   39.5988  126.1006 C   0  0  0  0  0  0  0  0  0  0  0  0
  1  2  2  0  0  0
  2  7  1  0  0  0
  7  8  2  0  0  0
  8  9  1  0  0  0
  9 17  1  0  0  0
 17 18  1  0  0  0
 18 19  1  0  0  0
 19 20  1  0  0  0
 20 21  1  0  0  0
  9 10  2  0  0  0
 10 13  1  0  0  0
 13 14  2  0  0  0
 13 15  1  0  0  0
 10 11  1  0  0  0
 11 12  2  0  0  0
  2  3  1  0  0  0
  3  4  2  0  0  0
  4 26  1  0  0  0
 26 27  2  0  0  0
 27 28  1  0  0  0
 28 29  1  0  0  0
 29 30  2  0  0  0
 30 31  1  0  0  0
 30 32  1  0  0  0
 32 33  2  0  0  0
  4  5  1  0  0  0
  5  6  2  0  0  0
  6 22  1  0  0  0
 22 23  2  0  0  0
 22 24  1  0  0  0
 22 25  2  0  0  0
  6  1  1  0  0  0
 12  7  1  0  0  0
 33 28  1  0  0  0
 21 19  1  0  0  0
 15 16  1  0  0  0
M  END
> <minimizedAffinity>
6.66504

> <CNNscore>
0.4532840550

> <CNNaffinity>
7.5091247559

> <CNN_VS>
3.4037666321

> <CNNaffinity_variance>
0.4830239415

$$$$
[H]OC(=O)c1c([H])c([H])c(-c2c([H])c(/C([H])=N/n3c([H])nc(C([H])([H])[H])c3[H])c([H])c(S(=O)(=O)F)c2[H])c([H])c1OC([H])([H])C1([H])C([H])([H])C1([H])[H]


 33 36  0  0  0  0  0  0  0  0999 V2000
    9.1919   48.2902  131.3844 C   0  0  0  0  0  0  0  0  0  0  0  0
    8.8363   47.8159  130.1174 C   0  0  0  0  0  0  0  0  0  0  0  0
    8.2375   48.7274  129.2709 C   0  0  0  0  0  0  0  0  0  0  0  0
    7.9846   50.0371  129.6098 C   0  0  0  0  0  0  0  0  0  0  0  0
    8.3546   50.4536  130.8701 C   0  0  0  0  0  0  0  0  0  0  0  0
    8.9567   49.5926  131.7629 C   0  0  0  0  0  0  0  0  0  0  0  0
    9.0868   46.4362  129.7329 C   0  0  0  0  0  0  0  0  0  0  0  0
   10.1561   45.7307  130.2150 C   0  0  0  0  0  0  0  0  0  0  0  0
   10.3962   44.4083  129.8429 C   0  0  0  0  0  0  0  0  0  0  0  0
    9.5250   43.8039  128.9633 C   0  0  0  0  0  0  0  0  0  0  0  0
    8.4237   44.5008  128.4546 C   0  0  0  0  0  0  0  0  0  0  0  0
    8.2289   45.8150  128.8561 C   0  0  0  0  0  0  0  0  0  0  0  0
    9.7479   42.4337  128.5592 C   0  0  0  0  0  0  0  0  0  0  0  0
    9.7777   42.1380  127.3480 O   0  0  0  0  0  0  0  0  0  0  0  0
    9.9281   41.4486  129.5029 O   0  0  0  0  0  0  0  0  0  0  0  0
    9.6612   40.4866  129.3520 H   0  0  0  0  0  0  0  0  0  0  0  0
   11.4635   43.6928  130.3195 O   0  0  0  0  0  0  0  0  0  0  0  0
   12.2659   44.1160  131.4090 C   0  0  0  0  0  0  0  0  0  0  0  0
   11.8042   43.4406  132.6584 C   0  0  0  0  0  0  0  0  0  0  0  0
   11.0573   44.3347  133.6487 C   0  0  0  0  0  0  0  0  0  0  0  0
   10.3599   43.2285  132.9428 C   0  0  0  0  0  0  0  0  0  0  0  0
    9.4205   50.1573  133.3730 S   0  0  0  0  0  0  0  0  0  0  0  0
    8.3951   49.7740  134.3761 O   0  0  0  0  0  0  0  0  0  0  0  0
    9.6330   51.8119  133.2736 F   0  0  0  0  0  0  0  0  0  0  0  0
   10.7524   49.5500  133.7059 O   0  0  0  0  0  0  0  0  0  0  0  0
    7.3379   50.9652  128.6617 C   0  0  0  0  0  0  0  0  0  0  0  0
    7.9552   52.0047  128.2186 N   0  0  0  0  0  0  0  0  0  0  0  0
    7.4173   52.9301  127.3228 N   0  0  0  0  0  0  0  0  0  0  0  0
    7.5815   53.0459  126.0051 C   0  0  0  0  0  0  0  0  0  0  0  0
    6.8396   54.1210  125.5645 C   0  0  0  0  0  0  0  0  0  0  0  0
    6.6982   54.6499  124.1839 C   0  0  0  0  0  0  0  0  0  0  0  0
    6.2241   54.6555  126.6293 N   0  0  0  0  0  0  0  0  0  0  0  0
    6.5861   53.9186  127.6938 C   0  0  0  0  0  0  0  0  0  0  0  0
  1  2  2  0  0  0
  2  7  1  0  0  0
  7  8  2  0  0  0
  8  9  1  0  0  0
  9 17  1  0  0  0
 17 18  1  0  0  0
 18 19  1  0  0  0
 19 20  1  0  0  0
 20 21  1  0  0  0
  9 10  2  0  0  0
 10 13  1  0  0  0
 13 14  2  0  0  0
 13 15  1  0  0  0
 10 11  1  0  0  0
 11 12  2  0  0  0
  2  3  1  0  0  0
  3  4  2  0  0  0
  4 26  1  0  0  0
 26 27  2  0  0  0
 27 28  1  0  0  0
 28 29  1  0  0  0
 29 30  2  0  0  0
 30 31  1  0  0  0
 30 32  1  0  0  0
 32 33  2  0  0  0
  4  5  1  0  0  0
  5  6  2  0  0  0
  6 22  1  0  0  0
 22 23  2  0  0  0
 22 24  1  0  0  0
 22 25  2  0  0  0
  6  1  1  0  0  0
 12  7  1  0  0  0
 33 28  1  0  0  0
 21 19  1  0  0  0
 15 16  1  0  0  0
M  END
> <minimizedAffinity>
6.66000

> <CNNscore>
0.4432394207

> <CNNaffinity>
7.0548186302

> <CNN_VS>
3.1269736290

> <CNNaffinity_variance>
0.7520672083

$$$$
[H]OC(=O)c1c([H])c([H])c(-c2c([H])c(/C([H])=N/n3c([H])nc(C([H])([H])[H])c3[H])c([H])c(S(=O)(=O)F)c2[H])c([H])c1OC([H])([H])C1([H])C([H])([H])C1([H])[H]


 33 36  0  0  0  0  0  0  0  0999 V2000
    9.1809   48.1235  131.3212 C   0  0  0  0  0  0  0  0  0  0  0  0
    8.8402   47.6326  130.0563 C   0  0  0  0  0  0  0  0  0  0  0  0
    8.2786   48.5404  129.1808 C   0  0  0  0  0  0  0  0  0  0  0  0
    8.0481   49.8617  129.4898 C   0  0  0  0  0  0  0  0  0  0  0  0
    8.4020   50.2942  130.7493 C   0  0  0  0  0  0  0  0  0  0  0  0
    8.9670   49.4378  131.6701 C   0  0  0  0  0  0  0  0  0  0  0  0
    9.0677   46.2407  129.7030 C   0  0  0  0  0  0  0  0  0  0  0  0
    8.6981   45.2125  130.5275 C   0  0  0  0  0  0  0  0  0  0  0  0
    8.9196   43.8781  130.1882 C   0  0  0  0  0  0  0  0  0  0  0  0
    9.5294   43.5978  128.9850 C   0  0  0  0  0  0  0  0  0  0  0  0
    9.9179   44.6287  128.1225 C   0  0  0  0  0  0  0  0  0  0  0  0
    9.6750   45.9401  128.5065 C   0  0  0  0  0  0  0  0  0  0  0  0
    9.7722   42.2240  128.6057 C   0  0  0  0  0  0  0  0  0  0  0  0
    9.9393   41.9289  127.4056 O   0  0  0  0  0  0  0  0  0  0  0  0
    9.8206   41.2347  129.5609 O   0  0  0  0  0  0  0  0  0  0  0  0
    9.5550   40.2782  129.3764 H   0  0  0  0  0  0  0  0  0  0  0  0
    8.5535   42.8411  131.0060 O   0  0  0  0  0  0  0  0  0  0  0  0
    8.7670   42.8365  132.4074 C   0  0  0  0  0  0  0  0  0  0  0  0
   10.2104   43.0942  132.6913 C   0  0  0  0  0  0  0  0  0  0  0  0
   10.5389   44.5020  133.1892 C   0  0  0  0  0  0  0  0  0  0  0  0
   10.7051   43.3208  134.0755 C   0  0  0  0  0  0  0  0  0  0  0  0
    9.4110   50.0232  133.2784 S   0  0  0  0  0  0  0  0  0  0  0  0
   10.7106   49.4448  133.7041 O   0  0  0  0  0  0  0  0  0  0  0  0
    8.1611   49.6218  134.3124 F   0  0  0  0  0  0  0  0  0  0  0  0
    9.4831   51.5216  133.2172 O   0  0  0  0  0  0  0  0  0  0  0  0
    7.4410   50.7851  128.5114 C   0  0  0  0  0  0  0  0  0  0  0  0
    7.8785   51.9876  128.3674 N   0  0  0  0  0  0  0  0  0  0  0  0
    7.3623   52.9217  127.4680 N   0  0  0  0  0  0  0  0  0  0  0  0
    7.5465   53.0415  126.1534 C   0  0  0  0  0  0  0  0  0  0  0  0
    6.8211   54.1253  125.7068 C   0  0  0  0  0  0  0  0  0  0  0  0
    6.7045   54.6613  124.3266 C   0  0  0  0  0  0  0  0  0  0  0  0
    6.1953   54.6612  126.7649 N   0  0  0  0  0  0  0  0  0  0  0  0
    6.5351   53.9165  127.8314 C   0  0  0  0  0  0  0  0  0  0  0  0
  1  2  2  0  0  0
  2  7  1  0  0  0
  7  8  2  0  0  0
  8  9  1  0  0  0
  9 17  1  0  0  0
 17 18  1  0  0  0
 18 19  1  0  0  0
 19 20  1  0  0  0
 20 21  1  0  0  0
  9 10  2  0  0  0
 10 13  1  0  0  0
 13 14  2  0  0  0
 13 15  1  0  0  0
 10 11  1  0  0  0
 11 12  2  0  0  0
  2  3  1  0  0  0
  3  4  2  0  0  0
  4 26  1  0  0  0
 26 27  2  0  0  0
 27 28  1  0  0  0
 28 29  1  0  0  0
 29 30  2  0  0  0
 30 31  1  0  0  0
 30 32  1  0  0  0
 32 33  2  0  0  0
  4  5  1  0  0  0
  5  6  2  0  0  0
  6 22  1  0  0  0
 22 23  2  0  0  0
 22 24  1  0  0  0
 22 25  2  0  0  0
  6  1  1  0  0  0
 12  7  1  0  0  0
 33 28  1  0  0  0
 21 19  1  0  0  0
 15 16  1  0  0  0
M  END
> <minimizedAffinity>
6.31974

> <CNNscore>
0.4401532710

> <CNNaffinity>
7.1228952408

> <CNN_VS>
3.1351656914

> <CNNaffinity_variance>
0.7036286592

$$$$
[H]OC(=O)c1c([H])c([H])c(-c2c([H])c(/C([H])=N/n3c([H])nc(C([H])([H])[H])c3[H])c([H])c(S(=O)(=O)F)c2[H])c([H])c1OC([H])([H])C1([H])C([H])([H])C1([H])[H]


 33 36  0  0  0  0  0  0  0  0999 V2000
    9.3167   45.2321  130.3460 C   0  0  0  0  0  0  0  0  0  0  0  0
    9.0649   46.3299  131.1755 C   0  0  0  0  0  0  0  0  0  0  0  0
    8.6122   47.4750  130.5511 C   0  0  0  0  0  0  0  0  0  0  0  0
    8.4058   47.5778  129.1942 C   0  0  0  0  0  0  0  0  0  0  0  0
    8.6690   46.4672  128.4223 C   0  0  0  0  0  0  0  0  0  0  0  0
    9.1231   45.2932  128.9845 C   0  0  0  0  0  0  0  0  0  0  0  0
    9.2781   46.2524  132.6117 C   0  0  0  0  0  0  0  0  0  0  0  0
   10.1803   45.3851  133.1661 C   0  0  0  0  0  0  0  0  0  0  0  0
   10.3816   45.3102  134.5440 C   0  0  0  0  0  0  0  0  0  0  0  0
    9.6450   46.1384  135.3623 C   0  0  0  0  0  0  0  0  0  0  0  0
    8.7158   47.0347  134.8233 C   0  0  0  0  0  0  0  0  0  0  0  0
    8.5529   47.0707  133.4455 C   0  0  0  0  0  0  0  0  0  0  0  0
    9.8318   46.0837  136.7949 C   0  0  0  0  0  0  0  0  0  0  0  0
    9.7576   47.1274  137.4735 O   0  0  0  0  0  0  0  0  0  0  0  0
   10.0918   44.8854  137.4193 O   0  0  0  0  0  0  0  0  0  0  0  0
   10.6361   44.8132  138.2666 H   0  0  0  0  0  0  0  0  0  0  0  0
   11.2822   44.4457  135.1095 O   0  0  0  0  0  0  0  0  0  0  0  0
   11.9866   43.4585  134.3754 C   0  0  0  0  0  0  0  0  0  0  0  0
   11.4162   43.3612  132.9986 C   0  0  0  0  0  0  0  0  0  0  0  0
   12.4419   43.2271  131.8726 C   0  0  0  0  0  0  0  0  0  0  0  0
   11.5165   42.1111  132.1990 C   0  0  0  0  0  0  0  0  0  0  0  0
    9.4513   43.8848  127.9670 S   0  0  0  0  0  0  0  0  0  0  0  0
   10.8058   43.9793  127.3659 O   0  0  0  0  0  0  0  0  0  0  0  0
    8.2423   43.8150  126.8156 F   0  0  0  0  0  0  0  0  0  0  0  0
    9.3282   42.6598  128.8261 O   0  0  0  0  0  0  0  0  0  0  0  0
    7.9226   48.8314  128.5832 C   0  0  0  0  0  0  0  0  0  0  0  0
    7.8864   49.9303  129.2532 N   0  0  0  0  0  0  0  0  0  0  0  0
    7.4448   51.1558  128.7520 N   0  0  0  0  0  0  0  0  0  0  0  0
    7.6367   51.7150  127.5574 C   0  0  0  0  0  0  0  0  0  0  0  0
    6.9989   52.9369  127.5386 C   0  0  0  0  0  0  0  0  0  0  0  0
    6.9238   53.9298  126.4366 C   0  0  0  0  0  0  0  0  0  0  0  0
    6.4184   53.1124  128.7347 N   0  0  0  0  0  0  0  0  0  0  0  0
    6.6992   52.0182  129.4635 C   0  0  0  0  0  0  0  0  0  0  0  0
  1  2  2  0  0  0
  2  7  1  0  0  0
  7  8  2  0  0  0
  8  9  1  0  0  0
  9 17  1  0  0  0
 17 18  1  0  0  0
 18 19  1  0  0  0
 19 20  1  0  0  0
 20 21  1  0  0  0
  9 10  2  0  0  0
 10 13  1  0  0  0
 13 14  2  0  0  0
 13 15  1  0  0  0
 10 11  1  0  0  0
 11 12  2  0  0  0
  2  3  1  0  0  0
  3  4  2  0  0  0
  4 26  1  0  0  0
 26 27  2  0  0  0
 27 28  1  0  0  0
 28 29  1  0  0  0
 29 30  2  0  0  0
 30 31  1  0  0  0
 30 32  1  0  0  0
 32 33  2  0  0  0
  4  5  1  0  0  0
  5  6  2  0  0  0
  6 22  1  0  0  0
 22 23  2  0  0  0
 22 24  1  0  0  0
 22 25  2  0  0  0
  6  1  1  0  0  0
 12  7  1  0  0  0
 33 28  1  0  0  0
 21 19  1  0  0  0
 15 16  1  0  0  0
M  END
> <minimizedAffinity>
6.87802

> <CNNscore>
0.3650092483

> <CNNaffinity>
7.3966422081

> <CNN_VS>
2.6998429298

> <CNNaffinity_variance>
1.0319936275

$$$$
[H]OC(=O)c1c([H])c([H])c(-c2c([H])c(/C([H])=N/n3c([H])nc(C([H])([H])[H])c3[H])c([H])c(S(=O)(=O)F)c2[H])c([H])c1OC([H])([H])C1([H])C([H])([H])C1([H])[H]


 33 36  0  0  0  0  0  0  0  0999 V2000
   10.0176   43.9456  130.1196 C   0  0  0  0  0  0  0  0  0  0  0  0
    9.8181   44.9173  131.1059 C   0  0  0  0  0  0  0  0  0  0  0  0
    9.3153   46.1289  130.6755 C   0  0  0  0  0  0  0  0  0  0  0  0
    9.0129   46.4106  129.3626 C   0  0  0  0  0  0  0  0  0  0  0  0
    9.2281   45.4186  128.4307 C   0  0  0  0  0  0  0  0  0  0  0  0
    9.7281   44.1868  128.7957 C   0  0  0  0  0  0  0  0  0  0  0  0
   10.1327   44.6501  132.5001 C   0  0  0  0  0  0  0  0  0  0  0  0
    9.8676   45.5565  133.4909 C   0  0  0  0  0  0  0  0  0  0  0  0
   10.1726   45.2995  134.8272 C   0  0  0  0  0  0  0  0  0  0  0  0
   10.7579   44.0944  135.1484 C   0  0  0  0  0  0  0  0  0  0  0  0
   11.0402   43.1492  134.1563 C   0  0  0  0  0  0  0  0  0  0  0  0
   10.7171   43.4531  132.8412 C   0  0  0  0  0  0  0  0  0  0  0  0
   11.0854   43.7995  136.5253 C   0  0  0  0  0  0  0  0  0  0  0  0
   11.8635   42.8625  136.7941 O   0  0  0  0  0  0  0  0  0  0  0  0
   10.5443   44.5462  137.5466 O   0  0  0  0  0  0  0  0  0  0  0  0
   10.3658   44.1720  138.4671 H   0  0  0  0  0  0  0  0  0  0  0  0
    9.9114   46.1998  135.8270 O   0  0  0  0  0  0  0  0  0  0  0  0
    9.6316   47.5697  135.5934 C   0  0  0  0  0  0  0  0  0  0  0  0
   10.0334   47.9288  134.2005 C   0  0  0  0  0  0  0  0  0  0  0  0
    8.9248   48.5240  133.3318 C   0  0  0  0  0  0  0  0  0  0  0  0
   10.0931   49.3437  133.7459 C   0  0  0  0  0  0  0  0  0  0  0  0
    9.9926   42.9340  127.5762 S   0  0  0  0  0  0  0  0  0  0  0  0
    9.9516   41.5853  128.1960 O   0  0  0  0  0  0  0  0  0  0  0  0
   11.4593   43.2590  126.8445 F   0  0  0  0  0  0  0  0  0  0  0  0
    8.9245   43.0787  126.5311 O   0  0  0  0  0  0  0  0  0  0  0  0
    8.4800   47.7274  128.9622 C   0  0  0  0  0  0  0  0  0  0  0  0
    8.0272   48.5583  129.8355 N   0  0  0  0  0  0  0  0  0  0  0  0
    7.5072   49.8197  129.5417 N   0  0  0  0  0  0  0  0  0  0  0  0
    7.7259   50.6170  128.4962 C   0  0  0  0  0  0  0  0  0  0  0  0
    6.9787   51.7643  128.6568 C   0  0  0  0  0  0  0  0  0  0  0  0
    6.8851   52.9460  127.7621 C   0  0  0  0  0  0  0  0  0  0  0  0
    6.3049   51.6538  129.8111 N   0  0  0  0  0  0  0  0  0  0  0  0
    6.6376   50.4630  130.3390 C   0  0  0  0  0  0  0  0  0  0  0  0
  1  2  2  0  0  0
  2  7  1  0  0  0
  7  8  2  0  0  0
  8  9  1  0  0  0
  9 17  1  0  0  0
 17 18  1  0  0  0
 18 19  1  0  0  0
 19 20  1  0  0  0
 20 21  1  0  0  0
  9 10  2  0  0  0
 10 13  1  0  0  0
 13 14  2  0  0  0
 13 15  1  0  0  0
 10 11  1  0  0  0
 11 12  2  0  0  0
  2  3  1  0  0  0
  3  4  2  0  0  0
  4 26  1  0  0  0
 26 27  2  0  0  0
 27 28  1  0  0  0
 28 29  1  0  0  0
 29 30  2  0  0  0
 30 31  1  0  0  0
 30 32  1  0  0  0
 32 33  2  0  0  0
  4  5  1  0  0  0
  5  6  2  0  0  0
  6 22  1  0  0  0
 22 23  2  0  0  0
 22 24  1  0  0  0
 22 25  2  0  0  0
  6  1  1  0  0  0
 12  7  1  0  0  0
 33 28  1  0  0  0
 21 19  1  0  0  0
 15 16  1  0  0  0
M  END
> <minimizedAffinity>
6.95259

> <CNNscore>
0.3622487783

> <CNNaffinity>
7.4088287354

> <CNN_VS>
2.6838390827

> <CNNaffinity_variance>
0.9098650813

$$$$
[H]OC(=O)c1c([H])c([H])c(-c2c([H])c(/C([H])=N/n3c([H])nc(C([H])([H])[H])c3[H])c([H])c(S(=O)(=O)F)c2[H])c([H])c1OC([H])([H])C1([H])C([H])([H])C1([H])[H]


 33 36  0  0  0  0  0  0  0  0999 V2000
   10.1802   45.0979  131.0641 C   0  0  0  0  0  0  0  0  0  0  0  0
    9.6271   45.5510  129.8617 C   0  0  0  0  0  0  0  0  0  0  0  0
    9.7044   44.6842  128.7900 C   0  0  0  0  0  0  0  0  0  0  0  0
   10.2825   43.4367  128.8530 C   0  0  0  0  0  0  0  0  0  0  0  0
   10.8125   43.0388  130.0611 C   0  0  0  0  0  0  0  0  0  0  0  0
   10.7675   43.8574  131.1694 C   0  0  0  0  0  0  0  0  0  0  0  0
    9.0139   46.8657  129.7638 C   0  0  0  0  0  0  0  0  0  0  0  0
    7.9873   47.1253  128.8965 C   0  0  0  0  0  0  0  0  0  0  0  0
    7.4021   48.3876  128.8020 C   0  0  0  0  0  0  0  0  0  0  0  0
    7.8794   49.3961  129.6103 C   0  0  0  0  0  0  0  0  0  0  0  0
    8.9277   49.1594  130.5060 C   0  0  0  0  0  0  0  0  0  0  0  0
    9.4759   47.8856  130.5620 C   0  0  0  0  0  0  0  0  0  0  0  0
    7.2927   50.7153  129.5349 C   0  0  0  0  0  0  0  0  0  0  0  0
    6.8228   51.2480  130.5600 O   0  0  0  0  0  0  0  0  0  0  0  0
    7.2476   51.3915  128.3373 O   0  0  0  0  0  0  0  0  0  0  0  0
    6.5235   52.0564  128.1078 H   0  0  0  0  0  0  0  0  0  0  0  0
    6.3739   48.6584  127.9373 O   0  0  0  0  0  0  0  0  0  0  0  0
    5.0059   48.5945  128.3035 C   0  0  0  0  0  0  0  0  0  0  0  0
    4.8810   47.9663  129.6526 C   0  0  0  0  0  0  0  0  0  0  0  0
    3.9702   46.7401  129.7225 C   0  0  0  0  0  0  0  0  0  0  0  0
    5.4352   46.6161  129.9390 C   0  0  0  0  0  0  0  0  0  0  0  0
   11.4559   43.3177  132.7061 S   0  0  0  0  0  0  0  0  0  0  0  0
   10.3802   43.0433  133.6922 O   0  0  0  0  0  0  0  0  0  0  0  0
   12.5089   44.5088  133.2208 F   0  0  0  0  0  0  0  0  0  0  0  0
   12.2669   42.0833  132.4369 O   0  0  0  0  0  0  0  0  0  0  0  0
   10.3378   42.5547  127.6709 C   0  0  0  0  0  0  0  0  0  0  0  0
   10.4550   41.2784  127.7949 N   0  0  0  0  0  0  0  0  0  0  0  0
   10.5147   40.3760  126.7318 N   0  0  0  0  0  0  0  0  0  0  0  0
    9.5820   40.0309  125.8443 C   0  0  0  0  0  0  0  0  0  0  0  0
   10.1206   39.0985  124.9836 C   0  0  0  0  0  0  0  0  0  0  0  0
    9.4780   38.4156  123.8319 C   0  0  0  0  0  0  0  0  0  0  0  0
   11.3897   38.8821  125.3591 N   0  0  0  0  0  0  0  0  0  0  0  0
   11.6152   39.6680  126.4262 C   0  0  0  0  0  0  0  0  0  0  0  0
  1  2  2  0  0  0
  2  7  1  0  0  0
  7  8  2  0  0  0
  8  9  1  0  0  0
  9 17  1  0  0  0
 17 18  1  0  0  0
 18 19  1  0  0  0
 19 20  1  0  0  0
 20 21  1  0  0  0
  9 10  2  0  0  0
 10 13  1  0  0  0
 13 14  2  0  0  0
 13 15  1  0  0  0
 10 11  1  0  0  0
 11 12  2  0  0  0
  2  3  1  0  0  0
  3  4  2  0  0  0
  4 26  1  0  0  0
 26 27  2  0  0  0
 27 28  1  0  0  0
 28 29  1  0  0  0
 29 30  2  0  0  0
 30 31  1  0  0  0
 30 32  1  0  0  0
 32 33  2  0  0  0
  4  5  1  0  0  0
  5  6  2  0  0  0
  6 22  1  0  0  0
 22 23  2  0  0  0
 22 24  1  0  0  0
 22 25  2  0  0  0
  6  1  1  0  0  0
 12  7  1  0  0  0
 33 28  1  0  0  0
 21 19  1  0  0  0
 15 16  1  0  0  0
M  END
> <minimizedAffinity>
12.01453

> <CNNscore>
0.3458853066

> <CNNaffinity>
7.1105332375

> <CNN_VS>
2.4594290257

> <CNNaffinity_variance>
0.5796775818

$$$$
[H]N=C(N([H])[H])N([H])C([H])([H])C([H])([H])C([H])([H])[C@@]([H])(C(=O)N([H])[C@]([H])(C(=O)N([H])[H])C([H])([H])c1c([H])c([H])c([H])c([H])c1[H])N([H])C(=O)[C@@]([H])(N([H])C(=O)[C@@]([H])(N([H])C(=O)[C@@]1([H])N(S(=O)(=O)c2c([H])c([H])c([H])c(C(F)(F)F)c2[H])C([H])([H])C([H])([H])C1([H])[H])C([H])(C([H])([H])[H])C([H])([H])[H])C([H])([H])C([H])([H])C([H])([H])N([H])C(=N[H])N([H])[H]


 75 77  0  0  0  0  0  0  0  0999 V2000
    8.1659   47.0686  129.9488 C   0  0  0  0  0  0  0  0  0  0  0  0
    7.3651   49.2084  128.7959 C   0  0  0  0  0  0  0  0  0  0  0  0
    7.6464   48.8000  127.6558 O   0  0  0  0  0  0  0  0  0  0  0  0
    7.6180   48.4114  129.9215 N   0  0  0  0  0  0  0  0  0  0  0  0
    7.3911   48.7978  130.8803 H   0  0  0  0  0  0  0  0  0  0  0  0
    6.7597   50.5402  128.9720 C   0  0  0  0  0  0  0  0  0  0  0  0
    6.8679   51.4345  127.8563 N   0  0  0  0  0  0  0  0  0  0  0  0
    6.9256   52.8636  128.0359 C   0  0  0  0  0  0  0  0  0  0  0  0
    6.8821   53.3580  129.1775 O   0  0  0  0  0  0  0  0  0  0  0  0
    6.9101   51.0566  126.8991 H   0  0  0  0  0  0  0  0  0  0  0  0
    7.0288   53.7131  126.8195 C   0  0  0  0  0  0  0  0  0  0  0  0
    8.4787   54.2018  126.6852 C   0  0  0  0  0  0  0  0  0  0  0  0
    8.3529   55.4919  125.9718 C   0  0  0  0  0  0  0  0  0  0  0  0
    7.0493   56.0368  126.4926 C   0  0  0  0  0  0  0  0  0  0  0  0
    6.2683   54.9114  126.8876 N   0  0  0  0  0  0  0  0  0  0  0  0
    4.7797   54.8553  126.0234 S   0  0  0  0  0  0  0  0  0  0  0  0
    4.0768   56.2075  126.1241 O   0  0  0  0  0  0  0  0  0  0  0  0
    3.8454   53.8427  126.6588 O   0  0  0  0  0  0  0  0  0  0  0  0
    4.9762   54.5169  124.3243 C   0  0  0  0  0  0  0  0  0  0  0  0
    3.9320   53.9686  123.5910 C   0  0  0  0  0  0  0  0  0  0  0  0
    4.0815   53.7034  122.2566 C   0  0  0  0  0  0  0  0  0  0  0  0
    5.2678   53.9645  121.5778 C   0  0  0  0  0  0  0  0  0  0  0  0
    6.3156   54.5109  122.2963 C   0  0  0  0  0  0  0  0  0  0  0  0
    6.1379   54.7682  123.6416 C   0  0  0  0  0  0  0  0  0  0  0  0
    7.6154   54.8255  121.6343 C   0  0  0  0  0  0  0  0  0  0  0  0
    8.1925   55.9231  122.2866 F   0  0  0  0  0  0  0  0  0  0  0  0
    8.4303   53.7454  121.6886 F   0  0  0  0  0  0  0  0  0  0  0  0
    7.3549   55.1952  120.3357 F   0  0  0  0  0  0  0  0  0  0  0  0
    5.0300   50.7977  130.7785 C   0  0  0  0  0  0  0  0  0  0  0  0
    5.2755   50.3591  129.3587 C   0  0  0  0  0  0  0  0  0  0  0  0
    4.9225   48.9152  129.2258 C   0  0  0  0  0  0  0  0  0  0  0  0
    8.7785   46.7502  131.2420 C   0  0  0  0  0  0  0  0  0  0  0  0
    8.1359   46.0400  132.0595 O   0  0  0  0  0  0  0  0  0  0  0  0
   10.0541   47.2019  131.6187 N   0  0  0  0  0  0  0  0  0  0  0  0
   10.6366   47.8003  130.9492 H   0  0  0  0  0  0  0  0  0  0  0  0
   10.7127   46.9301  132.8761 C   0  0  0  0  0  0  0  0  0  0  0  0
   11.0402   45.5178  133.1238 C   0  0  0  0  0  0  0  0  0  0  0  0
   12.2494   45.1143  133.0395 O   0  0  0  0  0  0  0  0  0  0  0  0
   10.0542   44.5124  133.4681 N   0  0  0  0  0  0  0  0  0  0  0  0
    9.0539   44.7175  133.5358 H   0  0  0  0  0  0  0  0  0  0  0  0
   10.5500   43.1635  133.7193 C   0  0  0  0  0  0  0  0  0  0  0  0
   11.7982   43.2377  134.5782 C   0  0  0  0  0  0  0  0  0  0  0  0
   13.0838   43.1780  134.0009 N   0  0  0  0  0  0  0  0  0  0  0  0
   11.6366   43.3418  135.8235 O   0  0  0  0  0  0  0  0  0  0  0  0
   13.7441   43.9583  133.9317 H   0  0  0  0  0  0  0  0  0  0  0  0
   13.4426   42.2550  133.5792 H   0  0  0  0  0  0  0  0  0  0  0  0
   10.8647   42.4160  132.4920 C   0  0  0  0  0  0  0  0  0  0  0  0
   10.0324   42.7020  131.3265 C   0  0  0  0  0  0  0  0  0  0  0  0
    8.7002   43.0907  131.4915 C   0  0  0  0  0  0  0  0  0  0  0  0
    7.9388   43.3702  130.3495 C   0  0  0  0  0  0  0  0  0  0  0  0
    8.4812   43.2676  129.1174 C   0  0  0  0  0  0  0  0  0  0  0  0
    9.7948   42.8893  128.8985 C   0  0  0  0  0  0  0  0  0  0  0  0
   10.5270   42.6170  130.0421 C   0  0  0  0  0  0  0  0  0  0  0  0
   10.3826   47.7884  134.0180 C   0  0  0  0  0  0  0  0  0  0  0  0
    8.9303   48.0673  134.2995 C   0  0  0  0  0  0  0  0  0  0  0  0
    8.7213   49.5222  133.8528 C   0  0  0  0  0  0  0  0  0  0  0  0
    9.7085   50.0098  132.9620 N   0  0  0  0  0  0  0  0  0  0  0  0
   10.7090   50.1685  133.3416 H   0  0  0  0  0  0  0  0  0  0  0  0
    9.5383   50.3198  131.5926 C   0  0  0  0  0  0  0  0  0  0  0  0
    8.4374   51.2133  131.2420 N   0  0  0  0  0  0  0  0  0  0  0  0
   10.3073   49.8625  130.7274 N   0  0  0  0  0  0  0  0  0  0  0  0
    8.4848   52.2230  131.4558 H   0  0  0  0  0  0  0  0  0  0  0  0
    7.5953   50.8365  130.7735 H   0  0  0  0  0  0  0  0  0  0  0  0
   11.0941   49.2758  130.7247 H   0  0  0  0  0  0  0  0  0  0  0  0
    8.9286   46.6698  128.7411 C   0  0  0  0  0  0  0  0  0  0  0  0
   10.3856   47.0256  128.6986 C   0  0  0  0  0  0  0  0  0  0  0  0
   11.1336   45.7024  128.6542 C   0  0  0  0  0  0  0  0  0  0  0  0
   11.9565   45.4388  129.7818 N   0  0  0  0  0  0  0  0  0  0  0  0
   11.7270   45.8994  130.7336 H   0  0  0  0  0  0  0  0  0  0  0  0
   13.0751   44.6174  129.7617 C   0  0  0  0  0  0  0  0  0  0  0  0
   13.9030   44.4633  128.6512 N   0  0  0  0  0  0  0  0  0  0  0  0
   13.3702   43.9251  130.8317 N   0  0  0  0  0  0  0  0  0  0  0  0
   14.6843   45.1331  128.4904 H   0  0  0  0  0  0  0  0  0  0  0  0
   13.7701   43.6939  127.9673 H   0  0  0  0  0  0  0  0  0  0  0  0
   12.7721   44.0028  131.6716 H   0  0  0  0  0  0  0  0  0  0  0  0
 29 30  1  0  0  0
 30 31  1  0  0  0
 30  6  1  0  0  0
  6  7  1  0  0  0
  7  8  1  0  0  0
  8  9  2  0  0  0
  8 11  1  0  0  0
 11 12  1  0  0  0
 12 13  1  0  0  0
 13 14  1  0  0  0
 14 15  1  0  0  0
 15 16  1  0  0  0
 16 17  2  0  0  0
 16 18  2  0  0  0
 16 19  1  0  0  0
 19 20  2  0  0  0
 20 21  1  0  0  0
 21 22  2  0  0  0
 22 23  1  0  0  0
 23 24  2  0  0  0
 23 25  1  0  0  0
 25 26  1  0  0  0
 25 27  1  0  0  0
 25 28  1  0  0  0
  6  2  1  0  0  0
  2  3  2  0  0  0
  2  4  1  0  0  0
  4  1  1  0  0  0
  1 65  1  0  0  0
 65 66  1  0  0  0
 66 67  1  0  0  0
 67 68  1  0  0  0
 68 70  1  0  0  0
 70 71  1  0  0  0
 70 72  2  0  0  0
  1 32  1  0  0  0
 32 33  2  0  0  0
 32 34  1  0  0  0
 34 36  1  0  0  0
 36 54  1  0  0  0
 54 55  1  0  0  0
 55 56  1  0  0  0
 56 57  1  0  0  0
 57 59  1  0  0  0
 59 60  1  0  0  0
 59 61  2  0  0  0
 36 37  1  0  0  0
 37 38  2  0  0  0
 37 39  1  0  0  0
 39 41  1  0  0  0
 41 47  1  0  0  0
 47 48  1  0  0  0
 48 49  2  0  0  0
 49 50  1  0  0  0
 50 51  2  0  0  0
 51 52  1  0  0  0
 52 53  2  0  0  0
 41 42  1  0  0  0
 42 43  1  0  0  0
 42 44  2  0  0  0
 15 11  1  0  0  0
 24 19  1  0  0  0
 53 48  1  0  0  0
  7 10  1  0  0  0
  4  5  1  0  0  0
 68 69  1  0  0  0
 71 73  1  0  0  0
 71 74  1  0  0  0
 72 75  1  0  0  0
 34 35  1  0  0  0
 57 58  1  0  0  0
 60 62  1  0  0  0
 60 63  1  0  0  0
 61 64  1  0  0  0
 39 40  1  0  0  0
 43 45  1  0  0  0
 43 46  1  0  0  0
M  END
> <minimizedAffinity>
2.31618

> <CNNscore>
0.5445204973

> <CNNaffinity>
8.6740484238

> <CNN_VS>
4.7231969833

> <CNNaffinity_variance>
0.3635576069

$$$$
[H]N=C(N([H])[H])N([H])C([H])([H])C([H])([H])C([H])([H])[C@@]([H])(C(=O)N([H])[C@]([H])(C(=O)N([H])[H])C([H])([H])c1c([H])c([H])c([H])c([H])c1[H])N([H])C(=O)[C@@]([H])(N([H])C(=O)[C@@]([H])(N([H])C(=O)[C@@]1([H])N(S(=O)(=O)c2c([H])c([H])c([H])c(C(F)(F)F)c2[H])C([H])([H])C([H])([H])C1([H])[H])C([H])(C([H])([H])[H])C([H])([H])[H])C([H])([H])C([H])([H])C([H])([H])N([H])C(=N[H])N([H])[H]


 75 77  0  0  0  0  0  0  0  0999 V2000
    9.4021   48.7971  130.0546 C   0  0  0  0  0  0  0  0  0  0  0  0
    9.2864   48.0728  132.5065 C   0  0  0  0  0  0  0  0  0  0  0  0
   10.1681   48.8700  132.8713 O   0  0  0  0  0  0  0  0  0  0  0  0
    8.9065   47.9976  131.1588 N   0  0  0  0  0  0  0  0  0  0  0  0
    8.1713   47.2908  130.8758 H   0  0  0  0  0  0  0  0  0  0  0  0
    8.6309   47.1978  133.4943 C   0  0  0  0  0  0  0  0  0  0  0  0
    8.8541   45.7902  133.3361 N   0  0  0  0  0  0  0  0  0  0  0  0
    8.1998   45.0331  132.2985 C   0  0  0  0  0  0  0  0  0  0  0  0
    7.4173   45.5920  131.5080 O   0  0  0  0  0  0  0  0  0  0  0  0
    9.4988   45.2991  133.9716 H   0  0  0  0  0  0  0  0  0  0  0  0
    8.4857   43.5759  132.2163 C   0  0  0  0  0  0  0  0  0  0  0  0
    7.1880   42.8426  131.8456 C   0  0  0  0  0  0  0  0  0  0  0  0
    7.3537   41.5023  132.4500 C   0  0  0  0  0  0  0  0  0  0  0  0
    8.1358   41.7945  133.7031 C   0  0  0  0  0  0  0  0  0  0  0  0
    8.8668   42.9930  133.4548 N   0  0  0  0  0  0  0  0  0  0  0  0
   10.5608   42.7326  133.6230 S   0  0  0  0  0  0  0  0  0  0  0  0
   10.9334   41.3775  133.0250 O   0  0  0  0  0  0  0  0  0  0  0  0
   10.9351   42.6659  135.0918 O   0  0  0  0  0  0  0  0  0  0  0  0
   11.5312   43.9270  132.8034 C   0  0  0  0  0  0  0  0  0  0  0  0
   11.8572   45.1211  133.4332 C   0  0  0  0  0  0  0  0  0  0  0  0
   12.6204   46.0604  132.7941 C   0  0  0  0  0  0  0  0  0  0  0  0
   13.1002   45.8705  131.5017 C   0  0  0  0  0  0  0  0  0  0  0  0
   12.7832   44.6855  130.8632 C   0  0  0  0  0  0  0  0  0  0  0  0
   12.0112   43.7550  131.5311 C   0  0  0  0  0  0  0  0  0  0  0  0
   13.2690   44.4079  129.4799 C   0  0  0  0  0  0  0  0  0  0  0  0
   13.1905   45.5920  128.7350 F   0  0  0  0  0  0  0  0  0  0  0  0
   14.5413   43.9467  129.5251 F   0  0  0  0  0  0  0  0  0  0  0  0
   12.4208   43.4906  128.9054 F   0  0  0  0  0  0  0  0  0  0  0  0
    9.6474   46.4906  135.6826 C   0  0  0  0  0  0  0  0  0  0  0  0
    9.0622   47.6429  134.9090 C   0  0  0  0  0  0  0  0  0  0  0  0
    7.8622   48.1572  135.6319 C   0  0  0  0  0  0  0  0  0  0  0  0
    8.3154   49.4358  129.3062 C   0  0  0  0  0  0  0  0  0  0  0  0
    7.8218   48.8311  128.3181 O   0  0  0  0  0  0  0  0  0  0  0  0
    7.7945   50.6978  129.6367 N   0  0  0  0  0  0  0  0  0  0  0  0
    8.1802   51.2407  130.4746 H   0  0  0  0  0  0  0  0  0  0  0  0
    6.7310   51.3850  128.9400 C   0  0  0  0  0  0  0  0  0  0  0  0
    7.0663   52.7294  128.4464 C   0  0  0  0  0  0  0  0  0  0  0  0
    7.2580   53.6868  129.2701 O   0  0  0  0  0  0  0  0  0  0  0  0
    7.1988   53.0598  127.0412 N   0  0  0  0  0  0  0  0  0  0  0  0
    7.0402   52.3785  126.2942 H   0  0  0  0  0  0  0  0  0  0  0  0
    7.5738   54.4328  126.7208 C   0  0  0  0  0  0  0  0  0  0  0  0
    6.3826   55.1526  126.1173 C   0  0  0  0  0  0  0  0  0  0  0  0
    6.4087   56.5456  125.8971 N   0  0  0  0  0  0  0  0  0  0  0  0
    5.3705   54.4572  125.8347 O   0  0  0  0  0  0  0  0  0  0  0  0
    6.4589   57.0046  124.9826 H   0  0  0  0  0  0  0  0  0  0  0  0
    6.3808   57.2235  126.7326 H   0  0  0  0  0  0  0  0  0  0  0  0
    8.7066   54.5290  125.7872 C   0  0  0  0  0  0  0  0  0  0  0  0
    8.3721   54.7189  124.3783 C   0  0  0  0  0  0  0  0  0  0  0  0
    7.6113   53.7624  123.7006 C   0  0  0  0  0  0  0  0  0  0  0  0
    7.2992   53.9877  122.3539 C   0  0  0  0  0  0  0  0  0  0  0  0
    7.7230   55.1052  121.7258 C   0  0  0  0  0  0  0  0  0  0  0  0
    8.4766   56.0841  122.3506 C   0  0  0  0  0  0  0  0  0  0  0  0
    8.7736   55.8387  123.6808 C   0  0  0  0  0  0  0  0  0  0  0  0
    5.3530   51.1109  129.3590 C   0  0  0  0  0  0  0  0  0  0  0  0
    4.7342   49.8011  128.9496 C   0  0  0  0  0  0  0  0  0  0  0  0
    4.7917   48.9327  130.2155 C   0  0  0  0  0  0  0  0  0  0  0  0
    5.1704   47.5873  129.9872 N   0  0  0  0  0  0  0  0  0  0  0  0
    4.8651   46.8391  130.7063 H   0  0  0  0  0  0  0  0  0  0  0  0
    5.9197   47.0893  128.8959 C   0  0  0  0  0  0  0  0  0  0  0  0
    5.5785   47.5908  127.5673 N   0  0  0  0  0  0  0  0  0  0  0  0
    6.8420   46.2712  129.0667 N   0  0  0  0  0  0  0  0  0  0  0  0
    5.8234   48.5539  127.2847 H   0  0  0  0  0  0  0  0  0  0  0  0
    5.0843   46.9788  126.8951 H   0  0  0  0  0  0  0  0  0  0  0  0
    7.2464   45.8176  129.8374 H   0  0  0  0  0  0  0  0  0  0  0  0
   10.4781   48.1698  129.2498 C   0  0  0  0  0  0  0  0  0  0  0  0
   10.1107   46.9720  128.4241 C   0  0  0  0  0  0  0  0  0  0  0  0
   10.1409   45.7875  129.3771 C   0  0  0  0  0  0  0  0  0  0  0  0
    9.1618   44.7890  129.1265 N   0  0  0  0  0  0  0  0  0  0  0  0
    8.1161   45.0074  129.2982 H   0  0  0  0  0  0  0  0  0  0  0  0
    9.4455   43.5087  128.6721 C   0  0  0  0  0  0  0  0  0  0  0  0
    9.7269   43.2036  127.3416 N   0  0  0  0  0  0  0  0  0  0  0  0
    9.4309   42.5174  129.5256 N   0  0  0  0  0  0  0  0  0  0  0  0
   10.7016   43.2908  126.9849 H   0  0  0  0  0  0  0  0  0  0  0  0
    8.9913   42.8867  126.6816 H   0  0  0  0  0  0  0  0  0  0  0  0
    9.2135   42.7021  130.5195 H   0  0  0  0  0  0  0  0  0  0  0  0
 29 30  1  0  0  0
 30 31  1  0  0  0
 30  6  1  0  0  0
  6  7  1  0  0  0
  7  8  1  0  0  0
  8  9  2  0  0  0
  8 11  1  0  0  0
 11 12  1  0  0  0
 12 13  1  0  0  0
 13 14  1  0  0  0
 14 15  1  0  0  0
 15 16  1  0  0  0
 16 17  2  0  0  0
 16 18  2  0  0  0
 16 19  1  0  0  0
 19 20  2  0  0  0
 20 21  1  0  0  0
 21 22  2  0  0  0
 22 23  1  0  0  0
 23 24  2  0  0  0
 23 25  1  0  0  0
 25 26  1  0  0  0
 25 27  1  0  0  0
 25 28  1  0  0  0
  6  2  1  0  0  0
  2  3  2  0  0  0
  2  4  1  0  0  0
  4  1  1  0  0  0
  1 65  1  0  0  0
 65 66  1  0  0  0
 66 67  1  0  0  0
 67 68  1  0  0  0
 68 70  1  0  0  0
 70 71  1  0  0  0
 70 72  2  0  0  0
  1 32  1  0  0  0
 32 33  2  0  0  0
 32 34  1  0  0  0
 34 36  1  0  0  0
 36 54  1  0  0  0
 54 55  1  0  0  0
 55 56  1  0  0  0
 56 57  1  0  0  0
 57 59  1  0  0  0
 59 60  1  0  0  0
 59 61  2  0  0  0
 36 37  1  0  0  0
 37 38  2  0  0  0
 37 39  1  0  0  0
 39 41  1  0  0  0
 41 47  1  0  0  0
 47 48  1  0  0  0
 48 49  2  0  0  0
 49 50  1  0  0  0
 50 51  2  0  0  0
 51 52  1  0  0  0
 52 53  2  0  0  0
 41 42  1  0  0  0
 42 43  1  0  0  0
 42 44  2  0  0  0
 15 11  1  0  0  0
 24 19  1  0  0  0
 53 48  1  0  0  0
  7 10  1  0  0  0
  4  5  1  0  0  0
 68 69  1  0  0  0
 71 73  1  0  0  0
 71 74  1  0  0  0
 72 75  1  0  0  0
 34 35  1  0  0  0
 57 58  1  0  0  0
 60 62  1  0  0  0
 60 63  1  0  0  0
 61 64  1  0  0  0
 39 40  1  0  0  0
 43 45  1  0  0  0
 43 46  1  0  0  0
M  END
> <minimizedAffinity>
5.94234

> <CNNscore>
0.5339658260

> <CNNaffinity>
8.5387439728

> <CNN_VS>
4.5593976974

> <CNNaffinity_variance>
0.6221271753

$$$$
[H]N=C(N([H])[H])N([H])C([H])([H])C([H])([H])C([H])([H])[C@@]([H])(C(=O)N([H])[C@]([H])(C(=O)N([H])[H])C([H])([H])c1c([H])c([H])c([H])c([H])c1[H])N([H])C(=O)[C@@]([H])(N([H])C(=O)[C@@]([H])(N([H])C(=O)[C@@]1([H])N(S(=O)(=O)c2c([H])c([H])c([H])c(C(F)(F)F)c2[H])C([H])([H])C([H])([H])C1([H])[H])C([H])(C([H])([H])[H])C([H])([H])[H])C([H])([H])C([H])([H])C([H])([H])N([H])C(=N[H])N([H])[H]


 75 77  0  0  0  0  0  0  0  0999 V2000
    9.3669   48.4114  129.2946 C   0  0  0  0  0  0  0  0  0  0  0  0
    7.8984   50.4585  129.7440 C   0  0  0  0  0  0  0  0  0  0  0  0
    8.4515   50.7229  130.8258 O   0  0  0  0  0  0  0  0  0  0  0  0
    8.2996   49.3457  128.9913 N   0  0  0  0  0  0  0  0  0  0  0  0
    7.7920   49.1326  128.0874 H   0  0  0  0  0  0  0  0  0  0  0  0
    6.8122   51.3190  129.2433 C   0  0  0  0  0  0  0  0  0  0  0  0
    7.0070   51.8866  127.9409 N   0  0  0  0  0  0  0  0  0  0  0  0
    6.9932   53.3123  127.7280 C   0  0  0  0  0  0  0  0  0  0  0  0
    6.8095   54.0906  128.6819 O   0  0  0  0  0  0  0  0  0  0  0  0
    7.1653   51.2696  127.1316 H   0  0  0  0  0  0  0  0  0  0  0  0
    7.1954   53.8095  126.3410 C   0  0  0  0  0  0  0  0  0  0  0  0
    8.5125   53.2326  125.8013 C   0  0  0  0  0  0  0  0  0  0  0  0
    8.9691   54.2459  124.8247 C   0  0  0  0  0  0  0  0  0  0  0  0
    8.5015   55.5383  125.4398 C   0  0  0  0  0  0  0  0  0  0  0  0
    7.3764   55.2162  126.2541 N   0  0  0  0  0  0  0  0  0  0  0  0
    5.9757   56.0801  125.7468 S   0  0  0  0  0  0  0  0  0  0  0  0
    6.3611   57.0982  124.6755 O   0  0  0  0  0  0  0  0  0  0  0  0
    5.4066   56.8776  126.9053 O   0  0  0  0  0  0  0  0  0  0  0  0
    4.7454   55.0597  125.0503 C   0  0  0  0  0  0  0  0  0  0  0  0
    4.6756   54.8810  123.6748 C   0  0  0  0  0  0  0  0  0  0  0  0
    3.7127   54.0792  123.1242 C   0  0  0  0  0  0  0  0  0  0  0  0
    2.7696   53.4136  123.9014 C   0  0  0  0  0  0  0  0  0  0  0  0
    2.8283   53.5826  125.2728 C   0  0  0  0  0  0  0  0  0  0  0  0
    3.8099   54.3976  125.8019 C   0  0  0  0  0  0  0  0  0  0  0  0
    1.8555   52.8942  126.1708 C   0  0  0  0  0  0  0  0  0  0  0  0
    0.7851   53.7642  126.4172 F   0  0  0  0  0  0  0  0  0  0  0  0
    1.4261   51.7493  125.5892 F   0  0  0  0  0  0  0  0  0  0  0  0
    2.4824   52.6460  127.3693 F   0  0  0  0  0  0  0  0  0  0  0  0
    4.8662   50.5613  130.6435 C   0  0  0  0  0  0  0  0  0  0  0  0
    5.4935   50.5157  129.2749 C   0  0  0  0  0  0  0  0  0  0  0  0
    5.7926   49.0969  128.9219 C   0  0  0  0  0  0  0  0  0  0  0  0
    8.8671   47.0458  129.4798 C   0  0  0  0  0  0  0  0  0  0  0  0
    7.8031   46.8720  130.1305 O   0  0  0  0  0  0  0  0  0  0  0  0
    9.5204   45.9133  128.9661 N   0  0  0  0  0  0  0  0  0  0  0  0
   10.4225   46.0185  128.3998 H   0  0  0  0  0  0  0  0  0  0  0  0
    9.0862   44.5430  129.1162 C   0  0  0  0  0  0  0  0  0  0  0  0
    9.1258   44.0160  130.4888 C   0  0  0  0  0  0  0  0  0  0  0  0
   10.1280   43.3299  130.8849 O   0  0  0  0  0  0  0  0  0  0  0  0
    8.0707   44.2248  131.4607 N   0  0  0  0  0  0  0  0  0  0  0  0
    7.2105   44.7350  131.2440 H   0  0  0  0  0  0  0  0  0  0  0  0
    8.2826   43.6666  132.7919 C   0  0  0  0  0  0  0  0  0  0  0  0
    7.7498   42.2468  132.8333 C   0  0  0  0  0  0  0  0  0  0  0  0
    7.8111   41.4804  134.0158 N   0  0  0  0  0  0  0  0  0  0  0  0
    7.2643   41.7812  131.7678 O   0  0  0  0  0  0  0  0  0  0  0  0
    7.0111   41.2184  134.5997 H   0  0  0  0  0  0  0  0  0  0  0  0
    8.7598   41.1229  134.3774 H   0  0  0  0  0  0  0  0  0  0  0  0
    7.6405   44.4437  133.8631 C   0  0  0  0  0  0  0  0  0  0  0  0
    8.3711   45.6133  134.3438 C   0  0  0  0  0  0  0  0  0  0  0  0
    8.1480   46.8675  133.7690 C   0  0  0  0  0  0  0  0  0  0  0  0
    8.8577   47.9674  134.2675 C   0  0  0  0  0  0  0  0  0  0  0  0
    9.7363   47.8184  135.2818 C   0  0  0  0  0  0  0  0  0  0  0  0
    9.9927   46.6003  135.8874 C   0  0  0  0  0  0  0  0  0  0  0  0
    9.2805   45.5278  135.3769 C   0  0  0  0  0  0  0  0  0  0  0  0
    9.3316   43.6241  128.0004 C   0  0  0  0  0  0  0  0  0  0  0  0
   10.7181   43.0611  127.8367 C   0  0  0  0  0  0  0  0  0  0  0  0
   11.6258   44.2947  127.7173 C   0  0  0  0  0  0  0  0  0  0  0  0
   12.1226   44.7790  128.9519 N   0  0  0  0  0  0  0  0  0  0  0  0
   11.6087   45.6062  129.4229 H   0  0  0  0  0  0  0  0  0  0  0  0
   13.2425   44.2932  129.6662 C   0  0  0  0  0  0  0  0  0  0  0  0
   14.5233   44.2703  128.9648 N   0  0  0  0  0  0  0  0  0  0  0  0
   13.1400   43.9182  130.8486 N   0  0  0  0  0  0  0  0  0  0  0  0
   15.0377   45.1451  128.7707 H   0  0  0  0  0  0  0  0  0  0  0  0
   14.9268   43.3693  128.6548 H   0  0  0  0  0  0  0  0  0  0  0  0
   12.4145   43.8557  131.5066 H   0  0  0  0  0  0  0  0  0  0  0  0
   10.3660   48.8880  130.2814 C   0  0  0  0  0  0  0  0  0  0  0  0
   10.3389   48.2630  131.6452 C   0  0  0  0  0  0  0  0  0  0  0  0
   11.3086   47.0934  131.5838 C   0  0  0  0  0  0  0  0  0  0  0  0
   10.9747   45.9911  132.4155 N   0  0  0  0  0  0  0  0  0  0  0  0
    9.9400   45.6932  132.5225 H   0  0  0  0  0  0  0  0  0  0  0  0
   11.8966   45.2435  133.1348 C   0  0  0  0  0  0  0  0  0  0  0  0
   11.8195   43.8608  133.2911 N   0  0  0  0  0  0  0  0  0  0  0  0
   12.8888   45.8602  133.7234 N   0  0  0  0  0  0  0  0  0  0  0  0
   12.2300   43.2338  132.5677 H   0  0  0  0  0  0  0  0  0  0  0  0
   11.3623   43.4240  134.1142 H   0  0  0  0  0  0  0  0  0  0  0  0
   12.9727   46.8875  133.6413 H   0  0  0  0  0  0  0  0  0  0  0  0
 29 30  1  0  0  0
 30 31  1  0  0  0
 30  6  1  0  0  0
  6  7  1  0  0  0
  7  8  1  0  0  0
  8  9  2  0  0  0
  8 11  1  0  0  0
 11 12  1  0  0  0
 12 13  1  0  0  0
 13 14  1  0  0  0
 14 15  1  0  0  0
 15 16  1  0  0  0
 16 17  2  0  0  0
 16 18  2  0  0  0
 16 19  1  0  0  0
 19 20  2  0  0  0
 20 21  1  0  0  0
 21 22  2  0  0  0
 22 23  1  0  0  0
 23 24  2  0  0  0
 23 25  1  0  0  0
 25 26  1  0  0  0
 25 27  1  0  0  0
 25 28  1  0  0  0
  6  2  1  0  0  0
  2  3  2  0  0  0
  2  4  1  0  0  0
  4  1  1  0  0  0
  1 65  1  0  0  0
 65 66  1  0  0  0
 66 67  1  0  0  0
 67 68  1  0  0  0
 68 70  1  0  0  0
 70 71  1  0  0  0
 70 72  2  0  0  0
  1 32  1  0  0  0
 32 33  2  0  0  0
 32 34  1  0  0  0
 34 36  1  0  0  0
 36 54  1  0  0  0
 54 55  1  0  0  0
 55 56  1  0  0  0
 56 57  1  0  0  0
 57 59  1  0  0  0
 59 60  1  0  0  0
 59 61  2  0  0  0
 36 37  1  0  0  0
 37 38  2  0  0  0
 37 39  1  0  0  0
 39 41  1  0  0  0
 41 47  1  0  0  0
 47 48  1  0  0  0
 48 49  2  0  0  0
 49 50  1  0  0  0
 50 51  2  0  0  0
 51 52  1  0  0  0
 52 53  2  0  0  0
 41 42  1  0  0  0
 42 43  1  0  0  0
 42 44  2  0  0  0
 15 11  1  0  0  0
 24 19  1  0  0  0
 53 48  1  0  0  0
  7 10  1  0  0  0
  4  5  1  0  0  0
 68 69  1  0  0  0
 71 73  1  0  0  0
 71 74  1  0  0  0
 72 75  1  0  0  0
 34 35  1  0  0  0
 57 58  1  0  0  0
 60 62  1  0  0  0
 60 63  1  0  0  0
 61 64  1  0  0  0
 39 40  1  0  0  0
 43 45  1  0  0  0
 43 46  1  0  0  0
M  END
> <minimizedAffinity>
2.66943

> <CNNscore>
0.5308235884

> <CNNaffinity>
8.7069368362

> <CNN_VS>
4.6218476295

> <CNNaffinity_variance>
0.3338588178

$$$$
[H]N=C(N([H])[H])N([H])C([H])([H])C([H])([H])C([H])([H])[C@@]([H])(C(=O)N([H])[C@]([H])(C(=O)N([H])[H])C([H])([H])c1c([H])c([H])c([H])c([H])c1[H])N([H])C(=O)[C@@]([H])(N([H])C(=O)[C@@]([H])(N([H])C(=O)[C@@]1([H])N(S(=O)(=O)c2c([H])c([H])c([H])c(C(F)(F)F)c2[H])C([H])([H])C([H])([H])C1([H])[H])C([H])(C([H])([H])[H])C([H])([H])[H])C([H])([H])C([H])([H])C([H])([H])N([H])C(=N[H])N([H])[H]


 75 77  0  0  0  0  0  0  0  0999 V2000
    7.7664   47.5496  129.5064 C   0  0  0  0  0  0  0  0  0  0  0  0
    7.2982   50.0654  129.4741 C   0  0  0  0  0  0  0  0  0  0  0  0
    8.4859   50.3745  129.6733 O   0  0  0  0  0  0  0  0  0  0  0  0
    6.9136   48.7187  129.4066 N   0  0  0  0  0  0  0  0  0  0  0  0
    5.8909   48.4880  129.2615 H   0  0  0  0  0  0  0  0  0  0  0  0
    6.2818   51.1188  129.3057 C   0  0  0  0  0  0  0  0  0  0  0  0
    6.3827   51.9073  128.1123 N   0  0  0  0  0  0  0  0  0  0  0  0
    6.8626   53.2663  128.1425 C   0  0  0  0  0  0  0  0  0  0  0  0
    7.2038   53.7908  129.2186 O   0  0  0  0  0  0  0  0  0  0  0  0
    6.1119   51.5010  127.2054 H   0  0  0  0  0  0  0  0  0  0  0  0
    6.9248   54.0099  126.8560 C   0  0  0  0  0  0  0  0  0  0  0  0
    8.3517   54.5467  126.6693 C   0  0  0  0  0  0  0  0  0  0  0  0
    8.1677   55.7629  125.8471 C   0  0  0  0  0  0  0  0  0  0  0  0
    6.8435   56.2948  126.3277 C   0  0  0  0  0  0  0  0  0  0  0  0
    6.1133   55.1758  126.8249 N   0  0  0  0  0  0  0  0  0  0  0  0
    4.6257   54.9806  125.9795 S   0  0  0  0  0  0  0  0  0  0  0  0
    3.8493   56.2957  125.9969 O   0  0  0  0  0  0  0  0  0  0  0  0
    3.7524   53.9625  126.6885 O   0  0  0  0  0  0  0  0  0  0  0  0
    4.8319   54.5414  124.3047 C   0  0  0  0  0  0  0  0  0  0  0  0
    3.7909   53.9528  123.5987 C   0  0  0  0  0  0  0  0  0  0  0  0
    3.9479   53.6084  122.2834 C   0  0  0  0  0  0  0  0  0  0  0  0
    5.1391   53.8263  121.5977 C   0  0  0  0  0  0  0  0  0  0  0  0
    6.1837   54.4123  122.2891 C   0  0  0  0  0  0  0  0  0  0  0  0
    5.9983   54.7494  123.6156 C   0  0  0  0  0  0  0  0  0  0  0  0
    7.4883   54.6842  121.6178 C   0  0  0  0  0  0  0  0  0  0  0  0
    8.1456   55.7035  122.3196 F   0  0  0  0  0  0  0  0  0  0  0  0
    8.2343   53.5545  121.5916 F   0  0  0  0  0  0  0  0  0  0  0  0
    7.2278   55.1455  120.3488 F   0  0  0  0  0  0  0  0  0  0  0  0
    4.9871   48.9951  129.6730 C   0  0  0  0  0  0  0  0  0  0  0  0
    4.8825   50.4710  129.3912 C   0  0  0  0  0  0  0  0  0  0  0  0
    4.1857   50.6709  128.0868 C   0  0  0  0  0  0  0  0  0  0  0  0
    8.7444   47.6726  130.5914 C   0  0  0  0  0  0  0  0  0  0  0  0
    9.9472   47.9060  130.3008 O   0  0  0  0  0  0  0  0  0  0  0  0
    8.4057   47.5406  131.9483 N   0  0  0  0  0  0  0  0  0  0  0  0
    7.3929   47.3510  132.2380 H   0  0  0  0  0  0  0  0  0  0  0  0
    9.3184   47.6446  133.0640 C   0  0  0  0  0  0  0  0  0  0  0  0
   10.7026   47.2319  132.7867 C   0  0  0  0  0  0  0  0  0  0  0  0
   11.6790   47.9652  133.1620 O   0  0  0  0  0  0  0  0  0  0  0  0
   11.0528   46.0091  132.0914 N   0  0  0  0  0  0  0  0  0  0  0  0
   10.3519   45.3611  131.7223 H   0  0  0  0  0  0  0  0  0  0  0  0
   12.4753   45.7280  131.9307 C   0  0  0  0  0  0  0  0  0  0  0  0
   12.6527   44.5461  130.9963 C   0  0  0  0  0  0  0  0  0  0  0  0
   12.4189   43.2272  131.4384 N   0  0  0  0  0  0  0  0  0  0  0  0
   13.0278   44.7923  129.8189 O   0  0  0  0  0  0  0  0  0  0  0  0
   11.6317   42.6344  131.1584 H   0  0  0  0  0  0  0  0  0  0  0  0
   13.0970   42.7643  132.1344 H   0  0  0  0  0  0  0  0  0  0  0  0
   13.1626   45.4358  133.1980 C   0  0  0  0  0  0  0  0  0  0  0  0
   12.3509   44.8345  134.2528 C   0  0  0  0  0  0  0  0  0  0  0  0
   11.4526   45.6179  134.9825 C   0  0  0  0  0  0  0  0  0  0  0  0
   10.6816   45.0014  135.9762 C   0  0  0  0  0  0  0  0  0  0  0  0
   10.8031   43.6793  136.2216 C   0  0  0  0  0  0  0  0  0  0  0  0
   11.6750   42.8583  135.5273 C   0  0  0  0  0  0  0  0  0  0  0  0
   12.4272   43.4903  134.5512 C   0  0  0  0  0  0  0  0  0  0  0  0
    8.7761   47.4353  134.4100 C   0  0  0  0  0  0  0  0  0  0  0  0
    7.6045   46.5030  134.5659 C   0  0  0  0  0  0  0  0  0  0  0  0
    8.2179   45.0959  134.5035 C   0  0  0  0  0  0  0  0  0  0  0  0
    8.1889   44.4999  133.2191 N   0  0  0  0  0  0  0  0  0  0  0  0
    7.7970   45.0786  132.3935 H   0  0  0  0  0  0  0  0  0  0  0  0
    8.6281   43.2000  132.8757 C   0  0  0  0  0  0  0  0  0  0  0  0
    7.6458   42.1218  132.9507 N   0  0  0  0  0  0  0  0  0  0  0  0
    9.7988   42.9908  132.5087 N   0  0  0  0  0  0  0  0  0  0  0  0
    6.8906   42.0423  132.2501 H   0  0  0  0  0  0  0  0  0  0  0  0
    7.7006   41.4248  133.7135 H   0  0  0  0  0  0  0  0  0  0  0  0
   10.6023   43.5380  132.3736 H   0  0  0  0  0  0  0  0  0  0  0  0
    8.2744   47.0229  128.2166 C   0  0  0  0  0  0  0  0  0  0  0  0
    8.6440   45.5696  128.1642 C   0  0  0  0  0  0  0  0  0  0  0  0
   10.1620   45.5256  128.2412 C   0  0  0  0  0  0  0  0  0  0  0  0
   10.7222   44.2228  128.3261 N   0  0  0  0  0  0  0  0  0  0  0  0
   11.7968   44.0979  128.3046 H   0  0  0  0  0  0  0  0  0  0  0  0
    9.9797   43.0548  128.4292 C   0  0  0  0  0  0  0  0  0  0  0  0
    9.7004   42.4186  129.6374 N   0  0  0  0  0  0  0  0  0  0  0  0
    9.5271   42.4951  127.3368 N   0  0  0  0  0  0  0  0  0  0  0  0
    8.8746   42.7132  130.1994 H   0  0  0  0  0  0  0  0  0  0  0  0
   10.2924   41.6491  130.0045 H   0  0  0  0  0  0  0  0  0  0  0  0
    9.7248   42.9304  126.4200 H   0  0  0  0  0  0  0  0  0  0  0  0
 29 30  1  0  0  0
 30 31  1  0  0  0
 30  6  1  0  0  0
  6  7  1  0  0  0
  7  8  1  0  0  0
  8  9  2  0  0  0
  8 11  1  0  0  0
 11 12  1  0  0  0
 12 13  1  0  0  0
 13 14  1  0  0  0
 14 15  1  0  0  0
 15 16  1  0  0  0
 16 17  2  0  0  0
 16 18  2  0  0  0
 16 19  1  0  0  0
 19 20  2  0  0  0
 20 21  1  0  0  0
 21 22  2  0  0  0
 22 23  1  0  0  0
 23 24  2  0  0  0
 23 25  1  0  0  0
 25 26  1  0  0  0
 25 27  1  0  0  0
 25 28  1  0  0  0
  6  2  1  0  0  0
  2  3  2  0  0  0
  2  4  1  0  0  0
  4  1  1  0  0  0
  1 65  1  0  0  0
 65 66  1  0  0  0
 66 67  1  0  0  0
 67 68  1  0  0  0
 68 70  1  0  0  0
 70 71  1  0  0  0
 70 72  2  0  0  0
  1 32  1  0  0  0
 32 33  2  0  0  0
 32 34  1  0  0  0
 34 36  1  0  0  0
 36 54  1  0  0  0
 54 55  1  0  0  0
 55 56  1  0  0  0
 56 57  1  0  0  0
 57 59  1  0  0  0
 59 60  1  0  0  0
 59 61  2  0  0  0
 36 37  1  0  0  0
 37 38  2  0  0  0
 37 39  1  0  0  0
 39 41  1  0  0  0
 41 47  1  0  0  0
 47 48  1  0  0  0
 48 49  2  0  0  0
 49 50  1  0  0  0
 50 51  2  0  0  0
 51 52  1  0  0  0
 52 53  2  0  0  0
 41 42  1  0  0  0
 42 43  1  0  0  0
 42 44  2  0  0  0
 15 11  1  0  0  0
 24 19  1  0  0  0
 53 48  1  0  0  0
  7 10  1  0  0  0
  4  5  1  0  0  0
 68 69  1  0  0  0
 71 73  1  0  0  0
 71 74  1  0  0  0
 72 75  1  0  0  0
 34 35  1  0  0  0
 57 58  1  0  0  0
 60 62  1  0  0  0
 60 63  1  0  0  0
 61 64  1  0  0  0
 39 40  1  0  0  0
 43 45  1  0  0  0
 43 46  1  0  0  0
M  END
> <minimizedAffinity>
7.39542

> <CNNscore>
0.5077632070

> <CNNaffinity>
8.3730916977

> <CNN_VS>
4.2515478134

> <CNNaffinity_variance>
0.4133066237

$$$$
[H]N=C(N([H])[H])N([H])C([H])([H])C([H])([H])C([H])([H])[C@@]([H])(C(=O)N([H])[C@]([H])(C(=O)N([H])[H])C([H])([H])c1c([H])c([H])c([H])c([H])c1[H])N([H])C(=O)[C@@]([H])(N([H])C(=O)[C@@]([H])(N([H])C(=O)[C@@]1([H])N(S(=O)(=O)c2c([H])c([H])c([H])c(C(F)(F)F)c2[H])C([H])([H])C([H])([H])C1([H])[H])C([H])(C([H])([H])[H])C([H])([H])[H])C([H])([H])C([H])([H])C([H])([H])N([H])C(=N[H])N([H])[H]


 75 77  0  0  0  0  0  0  0  0999 V2000
    7.2732   50.5965  129.8250 C   0  0  0  0  0  0  0  0  0  0  0  0
    6.9798   48.1917  129.0003 C   0  0  0  0  0  0  0  0  0  0  0  0
    5.9205   48.4381  128.3977 O   0  0  0  0  0  0  0  0  0  0  0  0
    7.6466   49.1994  129.7115 N   0  0  0  0  0  0  0  0  0  0  0  0
    8.5324   48.9520  130.2352 H   0  0  0  0  0  0  0  0  0  0  0  0
    7.5445   46.8311  128.9694 C   0  0  0  0  0  0  0  0  0  0  0  0
    8.9372   46.7190  129.2922 N   0  0  0  0  0  0  0  0  0  0  0  0
    9.6078   45.4432  129.3137 C   0  0  0  0  0  0  0  0  0  0  0  0
    8.9845   44.3986  129.0492 O   0  0  0  0  0  0  0  0  0  0  0  0
    9.4818   47.5651  129.5119 H   0  0  0  0  0  0  0  0  0  0  0  0
   11.0521   45.4233  129.6681 C   0  0  0  0  0  0  0  0  0  0  0  0
   11.8748   45.4627  128.3717 C   0  0  0  0  0  0  0  0  0  0  0  0
   13.1288   44.7623  128.7268 C   0  0  0  0  0  0  0  0  0  0  0  0
   12.6629   43.7173  129.7058 C   0  0  0  0  0  0  0  0  0  0  0  0
   11.4726   44.2245  130.3045 N   0  0  0  0  0  0  0  0  0  0  0  0
   11.6435   44.3525  132.0133 S   0  0  0  0  0  0  0  0  0  0  0  0
   12.2869   45.6922  132.3655 O   0  0  0  0  0  0  0  0  0  0  0  0
   12.5873   43.2805  132.5250 O   0  0  0  0  0  0  0  0  0  0  0  0
   10.1261   44.2839  132.8694 C   0  0  0  0  0  0  0  0  0  0  0  0
    9.6549   45.3954  133.5559 C   0  0  0  0  0  0  0  0  0  0  0  0
    8.4634   45.3463  134.2275 C   0  0  0  0  0  0  0  0  0  0  0  0
    7.6764   44.1990  134.2569 C   0  0  0  0  0  0  0  0  0  0  0  0
    8.1338   43.0851  133.5769 C   0  0  0  0  0  0  0  0  0  0  0  0
    9.3397   43.1619  132.9079 C   0  0  0  0  0  0  0  0  0  0  0  0
    7.3403   41.8216  133.5569 C   0  0  0  0  0  0  0  0  0  0  0  0
    7.0328   41.5105  132.2258 F   0  0  0  0  0  0  0  0  0  0  0  0
    8.0509   40.8251  134.1362 F   0  0  0  0  0  0  0  0  0  0  0  0
    6.1580   42.0492  134.2213 F   0  0  0  0  0  0  0  0  0  0  0  0
    5.2860   46.4074  129.9898 C   0  0  0  0  0  0  0  0  0  0  0  0
    6.7128   45.9314  129.9096 C   0  0  0  0  0  0  0  0  0  0  0  0
    7.3202   45.9776  131.2719 C   0  0  0  0  0  0  0  0  0  0  0  0
    7.1597   51.2442  128.5148 C   0  0  0  0  0  0  0  0  0  0  0  0
    7.5273   50.6105  127.4907 O   0  0  0  0  0  0  0  0  0  0  0  0
    6.6597   52.5456  128.3431 N   0  0  0  0  0  0  0  0  0  0  0  0
    6.3283   53.1145  129.1869 H   0  0  0  0  0  0  0  0  0  0  0  0
    6.5264   53.2434  127.0845 C   0  0  0  0  0  0  0  0  0  0  0  0
    7.6331   54.1512  126.7467 C   0  0  0  0  0  0  0  0  0  0  0  0
    8.0895   54.9615  127.6225 O   0  0  0  0  0  0  0  0  0  0  0  0
    8.2666   54.1963  125.4435 N   0  0  0  0  0  0  0  0  0  0  0  0
    7.9640   53.6121  124.6597 H   0  0  0  0  0  0  0  0  0  0  0  0
    9.3775   55.1284  125.2840 C   0  0  0  0  0  0  0  0  0  0  0  0
    8.9558   56.5024  125.7695 C   0  0  0  0  0  0  0  0  0  0  0  0
    7.7592   57.0981  125.3188 N   0  0  0  0  0  0  0  0  0  0  0  0
    9.7230   57.0894  126.5785 O   0  0  0  0  0  0  0  0  0  0  0  0
    6.9140   57.2389  125.8803 H   0  0  0  0  0  0  0  0  0  0  0  0
    7.6796   57.4450  124.3030 H   0  0  0  0  0  0  0  0  0  0  0  0
    9.8528   55.2429  123.8966 C   0  0  0  0  0  0  0  0  0  0  0  0
    8.8289   55.2160  122.8555 C   0  0  0  0  0  0  0  0  0  0  0  0
    8.8449   56.1634  121.8283 C   0  0  0  0  0  0  0  0  0  0  0  0
    7.8542   56.0955  120.8404 C   0  0  0  0  0  0  0  0  0  0  0  0
    6.9064   55.1347  120.8798 C   0  0  0  0  0  0  0  0  0  0  0  0
    6.8464   54.1719  121.8726 C   0  0  0  0  0  0  0  0  0  0  0  0
    7.8351   54.2601  122.8384 C   0  0  0  0  0  0  0  0  0  0  0  0
    5.1732   53.5823  126.6330 C   0  0  0  0  0  0  0  0  0  0  0  0
    5.0272   54.5811  125.5162 C   0  0  0  0  0  0  0  0  0  0  0  0
    3.6415   55.2072  125.7349 C   0  0  0  0  0  0  0  0  0  0  0  0
    2.5560   54.3517  125.4258 N   0  0  0  0  0  0  0  0  0  0  0  0
    2.2149   54.3054  124.4003 H   0  0  0  0  0  0  0  0  0  0  0  0
    1.8454   53.5224  126.3246 C   0  0  0  0  0  0  0  0  0  0  0  0
    2.1212   52.0892  126.2710 N   0  0  0  0  0  0  0  0  0  0  0  0
    1.0329   53.9999  127.1375 N   0  0  0  0  0  0  0  0  0  0  0  0
    3.0095   51.7058  126.6334 H   0  0  0  0  0  0  0  0  0  0  0  0
    1.4219   51.4432  125.8655 H   0  0  0  0  0  0  0  0  0  0  0  0
    0.7045   54.8979  127.3592 H   0  0  0  0  0  0  0  0  0  0  0  0
    7.9841   51.3596  130.8792 C   0  0  0  0  0  0  0  0  0  0  0  0
    9.1032   50.6636  131.5966 C   0  0  0  0  0  0  0  0  0  0  0  0
    8.6596   49.2174  131.7511 C   0  0  0  0  0  0  0  0  0  0  0  0
    9.0851   48.5826  132.9486 N   0  0  0  0  0  0  0  0  0  0  0  0
    8.4432   47.8555  133.4283 H   0  0  0  0  0  0  0  0  0  0  0  0
   10.2946   48.8324  133.5819 C   0  0  0  0  0  0  0  0  0  0  0  0
   10.7803   50.1115  133.8473 N   0  0  0  0  0  0  0  0  0  0  0  0
   11.0430   47.8199  133.9369 N   0  0  0  0  0  0  0  0  0  0  0  0
   10.4927   50.6045  134.7185 H   0  0  0  0  0  0  0  0  0  0  0  0
   11.4290   50.5997  133.2007 H   0  0  0  0  0  0  0  0  0  0  0  0
   10.7226   46.8557  133.7452 H   0  0  0  0  0  0  0  0  0  0  0  0
 29 30  1  0  0  0
 30 31  1  0  0  0
 30  6  1  0  0  0
  6  7  1  0  0  0
  7  8  1  0  0  0
  8  9  2  0  0  0
  8 11  1  0  0  0
 11 12  1  0  0  0
 12 13  1  0  0  0
 13 14  1  0  0  0
 14 15  1  0  0  0
 15 16  1  0  0  0
 16 17  2  0  0  0
 16 18  2  0  0  0
 16 19  1  0  0  0
 19 20  2  0  0  0
 20 21  1  0  0  0
 21 22  2  0  0  0
 22 23  1  0  0  0
 23 24  2  0  0  0
 23 25  1  0  0  0
 25 26  1  0  0  0
 25 27  1  0  0  0
 25 28  1  0  0  0
  6  2  1  0  0  0
  2  3  2  0  0  0
  2  4  1  0  0  0
  4  1  1  0  0  0
  1 65  1  0  0  0
 65 66  1  0  0  0
 66 67  1  0  0  0
 67 68  1  0  0  0
 68 70  1  0  0  0
 70 71  1  0  0  0
 70 72  2  0  0  0
  1 32  1  0  0  0
 32 33  2  0  0  0
 32 34  1  0  0  0
 34 36  1  0  0  0
 36 54  1  0  0  0
 54 55  1  0  0  0
 55 56  1  0  0  0
 56 57  1  0  0  0
 57 59  1  0  0  0
 59 60  1  0  0  0
 59 61  2  0  0  0
 36 37  1  0  0  0
 37 38  2  0  0  0
 37 39  1  0  0  0
 39 41  1  0  0  0
 41 47  1  0  0  0
 47 48  1  0  0  0
 48 49  2  0  0  0
 49 50  1  0  0  0
 50 51  2  0  0  0
 51 52  1  0  0  0
 52 53  2  0  0  0
 41 42  1  0  0  0
 42 43  1  0  0  0
 42 44  2  0  0  0
 15 11  1  0  0  0
 24 19  1  0  0  0
 53 48  1  0  0  0
  7 10  1  0  0  0
  4  5  1  0  0  0
 68 69  1  0  0  0
 71 73  1  0  0  0
 71 74  1  0  0  0
 72 75  1  0  0  0
 34 35  1  0  0  0
 57 58  1  0  0  0
 60 62  1  0  0  0
 60 63  1  0  0  0
 61 64  1  0  0  0
 39 40  1  0  0  0
 43 45  1  0  0  0
 43 46  1  0  0  0
M  END
> <minimizedAffinity>
6.82939

> <CNNscore>
0.4812137187

> <CNNaffinity>
8.1636343002

> <CNN_VS>
3.9284527302

> <CNNaffinity_variance>
0.2512676120

$$$$
[H]N=C(N([H])[H])N([H])C([H])([H])C([H])([H])C([H])([H])[C@@]([H])(C(=O)N([H])[C@]([H])(C(=O)N([H])[H])C([H])([H])c1c([H])c([H])c([H])c([H])c1[H])N([H])C(=O)[C@@]([H])(N([H])C(=O)[C@@]([H])(N([H])C(=O)[C@@]1([H])N(S(=O)(=O)c2c([H])c([H])c([H])c(C(F)(F)F)c2[H])C([H])([H])C([H])([H])C1([H])[H])C([H])(C([H])([H])[H])C([H])([H])[H])C([H])([H])C([H])([H])C([H])([H])N([H])C(=N[H])N([H])[H]


 75 77  0  0  0  0  0  0  0  0999 V2000
    6.8374   47.9781  128.3742 C   0  0  0  0  0  0  0  0  0  0  0  0
    8.6593   46.3623  129.1611 C   0  0  0  0  0  0  0  0  0  0  0  0
    7.9921   45.3474  128.8953 O   0  0  0  0  0  0  0  0  0  0  0  0
    8.1295   47.6418  128.9413 N   0  0  0  0  0  0  0  0  0  0  0  0
    8.7124   48.4858  129.2018 H   0  0  0  0  0  0  0  0  0  0  0  0
   10.0194   46.2256  129.7113 C   0  0  0  0  0  0  0  0  0  0  0  0
   10.1096   46.0367  131.1299 N   0  0  0  0  0  0  0  0  0  0  0  0
    8.9730   46.2389  131.9932 C   0  0  0  0  0  0  0  0  0  0  0  0
    7.8754   46.5862  131.5197 O   0  0  0  0  0  0  0  0  0  0  0  0
   11.0028   45.7456  131.5521 H   0  0  0  0  0  0  0  0  0  0  0  0
    9.1632   46.0277  133.4530 C   0  0  0  0  0  0  0  0  0  0  0  0
    8.3417   47.0809  134.2111 C   0  0  0  0  0  0  0  0  0  0  0  0
    9.0845   47.2653  135.4773 C   0  0  0  0  0  0  0  0  0  0  0  0
   10.5178   47.0794  135.0547 C   0  0  0  0  0  0  0  0  0  0  0  0
   10.4948   46.2463  133.8980 N   0  0  0  0  0  0  0  0  0  0  0  0
   11.4015   44.8047  134.1535 S   0  0  0  0  0  0  0  0  0  0  0  0
   11.0645   44.2231  135.5250 O   0  0  0  0  0  0  0  0  0  0  0  0
   12.8855   45.1193  134.1787 O   0  0  0  0  0  0  0  0  0  0  0  0
   11.0656   43.5571  132.9828 C   0  0  0  0  0  0  0  0  0  0  0  0
   11.9822   42.5383  132.7581 C   0  0  0  0  0  0  0  0  0  0  0  0
   11.7215   41.5559  131.8415 C   0  0  0  0  0  0  0  0  0  0  0  0
   10.5445   41.5284  131.0996 C   0  0  0  0  0  0  0  0  0  0  0  0
    9.6229   42.5370  131.3139 C   0  0  0  0  0  0  0  0  0  0  0  0
    9.9115   43.5161  132.2444 C   0  0  0  0  0  0  0  0  0  0  0  0
    8.3348   42.5691  130.5614 C   0  0  0  0  0  0  0  0  0  0  0  0
    7.6833   41.3418  130.7424 F   0  0  0  0  0  0  0  0  0  0  0  0
    7.5701   43.5944  131.0058 F   0  0  0  0  0  0  0  0  0  0  0  0
    8.6248   42.6999  129.2236 F   0  0  0  0  0  0  0  0  0  0  0  0
   12.0759   44.7835  129.5984 C   0  0  0  0  0  0  0  0  0  0  0  0
   10.7320   45.0669  128.9800 C   0  0  0  0  0  0  0  0  0  0  0  0
   10.9236   45.4529  127.5513 C   0  0  0  0  0  0  0  0  0  0  0  0
    6.4504   49.3611  128.6681 C   0  0  0  0  0  0  0  0  0  0  0  0
    5.3638   49.5728  129.2682 O   0  0  0  0  0  0  0  0  0  0  0  0
    7.2349   50.4700  128.3102 N   0  0  0  0  0  0  0  0  0  0  0  0
    8.1696   50.3327  127.8071 H   0  0  0  0  0  0  0  0  0  0  0  0
    6.9108   51.8554  128.5641 C   0  0  0  0  0  0  0  0  0  0  0  0
    7.2511   52.7910  127.4815 C   0  0  0  0  0  0  0  0  0  0  0  0
    7.5815   52.3480  126.3297 O   0  0  0  0  0  0  0  0  0  0  0  0
    7.2401   54.2328  127.6320 N   0  0  0  0  0  0  0  0  0  0  0  0
    7.0180   54.6960  128.5171 H   0  0  0  0  0  0  0  0  0  0  0  0
    7.5665   55.0203  126.4481 C   0  0  0  0  0  0  0  0  0  0  0  0
    6.3174   55.7228  125.9504 C   0  0  0  0  0  0  0  0  0  0  0  0
    5.2142   54.9897  125.4655 N   0  0  0  0  0  0  0  0  0  0  0  0
    6.3140   56.9825  125.9777 O   0  0  0  0  0  0  0  0  0  0  0  0
    4.3107   54.8884  125.9376 H   0  0  0  0  0  0  0  0  0  0  0  0
    5.2837   54.4710  124.5249 H   0  0  0  0  0  0  0  0  0  0  0  0
    8.1291   54.2212  125.3486 C   0  0  0  0  0  0  0  0  0  0  0  0
    8.3222   54.9125  124.0767 C   0  0  0  0  0  0  0  0  0  0  0  0
    9.1478   56.0378  124.0057 C   0  0  0  0  0  0  0  0  0  0  0  0
    9.3191   56.6645  122.7648 C   0  0  0  0  0  0  0  0  0  0  0  0
    8.7011   56.1901  121.6621 C   0  0  0  0  0  0  0  0  0  0  0  0
    7.8755   55.0790  121.6769 C   0  0  0  0  0  0  0  0  0  0  0  0
    7.7205   54.4775  122.9147 C   0  0  0  0  0  0  0  0  0  0  0  0
    6.9751   52.3275  129.9507 C   0  0  0  0  0  0  0  0  0  0  0  0
    8.0035   51.7131  130.8623 C   0  0  0  0  0  0  0  0  0  0  0  0
    7.3950   50.3660  131.2809 C   0  0  0  0  0  0  0  0  0  0  0  0
    8.3443   49.3424  131.5192 N   0  0  0  0  0  0  0  0  0  0  0  0
    7.9876   48.3271  131.6290 H   0  0  0  0  0  0  0  0  0  0  0  0
    9.7462   49.4932  131.6305 C   0  0  0  0  0  0  0  0  0  0  0  0
   10.2981   49.6336  132.9754 N   0  0  0  0  0  0  0  0  0  0  0  0
   10.4773   49.4883  130.6232 N   0  0  0  0  0  0  0  0  0  0  0  0
   10.3428   48.8254  133.6176 H   0  0  0  0  0  0  0  0  0  0  0  0
   10.6504   50.5521  133.2961 H   0  0  0  0  0  0  0  0  0  0  0  0
   10.3411   49.3992  129.6553 H   0  0  0  0  0  0  0  0  0  0  0  0
    5.7837   46.9482  128.5412 C   0  0  0  0  0  0  0  0  0  0  0  0
    4.9650   46.9984  129.7977 C   0  0  0  0  0  0  0  0  0  0  0  0
    3.5313   46.7292  129.3684 C   0  0  0  0  0  0  0  0  0  0  0  0
    2.6716   46.2662  130.4003 N   0  0  0  0  0  0  0  0  0  0  0  0
    2.8645   46.5482  131.4269 H   0  0  0  0  0  0  0  0  0  0  0  0
    1.5709   45.4460  130.1952 C   0  0  0  0  0  0  0  0  0  0  0  0
    0.8300   45.4247  129.0149 N   0  0  0  0  0  0  0  0  0  0  0  0
    1.1812   44.6574  131.1635 N   0  0  0  0  0  0  0  0  0  0  0  0
    1.1324   44.8181  128.2241 H   0  0  0  0  0  0  0  0  0  0  0  0
   -0.0261   45.9984  128.8914 H   0  0  0  0  0  0  0  0  0  0  0  0
    1.6977   44.6543  132.0592 H   0  0  0  0  0  0  0  0  0  0  0  0
 29 30  1  0  0  0
 30 31  1  0  0  0
 30  6  1  0  0  0
  6  7  1  0  0  0
  7  8  1  0  0  0
  8  9  2  0  0  0
  8 11  1  0  0  0
 11 12  1  0  0  0
 12 13  1  0  0  0
 13 14  1  0  0  0
 14 15  1  0  0  0
 15 16  1  0  0  0
 16 17  2  0  0  0
 16 18  2  0  0  0
 16 19  1  0  0  0
 19 20  2  0  0  0
 20 21  1  0  0  0
 21 22  2  0  0  0
 22 23  1  0  0  0
 23 24  2  0  0  0
 23 25  1  0  0  0
 25 26  1  0  0  0
 25 27  1  0  0  0
 25 28  1  0  0  0
  6  2  1  0  0  0
  2  3  2  0  0  0
  2  4  1  0  0  0
  4  1  1  0  0  0
  1 65  1  0  0  0
 65 66  1  0  0  0
 66 67  1  0  0  0
 67 68  1  0  0  0
 68 70  1  0  0  0
 70 71  1  0  0  0
 70 72  2  0  0  0
  1 32  1  0  0  0
 32 33  2  0  0  0
 32 34  1  0  0  0
 34 36  1  0  0  0
 36 54  1  0  0  0
 54 55  1  0  0  0
 55 56  1  0  0  0
 56 57  1  0  0  0
 57 59  1  0  0  0
 59 60  1  0  0  0
 59 61  2  0  0  0
 36 37  1  0  0  0
 37 38  2  0  0  0
 37 39  1  0  0  0
 39 41  1  0  0  0
 41 47  1  0  0  0
 47 48  1  0  0  0
 48 49  2  0  0  0
 49 50  1  0  0  0
 50 51  2  0  0  0
 51 52  1  0  0  0
 52 53  2  0  0  0
 41 42  1  0  0  0
 42 43  1  0  0  0
 42 44  2  0  0  0
 15 11  1  0  0  0
 24 19  1  0  0  0
 53 48  1  0  0  0
  7 10  1  0  0  0
  4  5  1  0  0  0
 68 69  1  0  0  0
 71 73  1  0  0  0
 71 74  1  0  0  0
 72 75  1  0  0  0
 34 35  1  0  0  0
 57 58  1  0  0  0
 60 62  1  0  0  0
 60 63  1  0  0  0
 61 64  1  0  0  0
 39 40  1  0  0  0
 43 45  1  0  0  0
 43 46  1  0  0  0
M  END
> <minimizedAffinity>
4.10832

> <CNNscore>
0.4565832615

> <CNNaffinity>
8.5843334198

> <CNN_VS>
3.9194629192

> <CNNaffinity_variance>
0.2929863930

$$$$
[H]N=C(N([H])[H])N([H])C([H])([H])C([H])([H])C([H])([H])[C@@]([H])(C(=O)N([H])[C@]([H])(C(=O)N([H])[H])C([H])([H])c1c([H])c([H])c([H])c([H])c1[H])N([H])C(=O)[C@@]([H])(N([H])C(=O)[C@@]([H])(N([H])C(=O)[C@@]1([H])N(S(=O)(=O)c2c([H])c([H])c([H])c(C(F)(F)F)c2[H])C([H])([H])C([H])([H])C1([H])[H])C([H])(C([H])([H])[H])C([H])([H])[H])C([H])([H])C([H])([H])C([H])([H])N([H])C(=N[H])N([H])[H]


 75 77  0  0  0  0  0  0  0  0999 V2000
    7.5407   50.9078  130.1894 C   0  0  0  0  0  0  0  0  0  0  0  0
    6.8720   48.8368  128.8427 C   0  0  0  0  0  0  0  0  0  0  0  0
    7.6261   49.1077  127.8920 O   0  0  0  0  0  0  0  0  0  0  0  0
    6.7916   49.6881  129.9540 N   0  0  0  0  0  0  0  0  0  0  0  0
    6.1213   49.4431  130.7355 H   0  0  0  0  0  0  0  0  0  0  0  0
    6.0542   47.6116  128.8075 C   0  0  0  0  0  0  0  0  0  0  0  0
    6.7209   46.3976  129.1789 N   0  0  0  0  0  0  0  0  0  0  0  0
    8.1563   46.3279  129.2925 C   0  0  0  0  0  0  0  0  0  0  0  0
    8.8562   47.3324  129.0678 O   0  0  0  0  0  0  0  0  0  0  0  0
    6.1699   45.5500  129.3752 H   0  0  0  0  0  0  0  0  0  0  0  0
    8.7603   45.0238  129.6750 C   0  0  0  0  0  0  0  0  0  0  0  0
    8.7084   44.0852  128.4603 C   0  0  0  0  0  0  0  0  0  0  0  0
    8.6414   42.7341  129.0595 C   0  0  0  0  0  0  0  0  0  0  0  0
    7.8368   42.9626  130.3116 C   0  0  0  0  0  0  0  0  0  0  0  0
    8.0360   44.3257  130.6785 N   0  0  0  0  0  0  0  0  0  0  0  0
    8.7135   44.4507  132.2568 S   0  0  0  0  0  0  0  0  0  0  0  0
    8.2720   43.2567  133.1006 O   0  0  0  0  0  0  0  0  0  0  0  0
    8.1799   45.6862  132.9574 O   0  0  0  0  0  0  0  0  0  0  0  0
   10.4571   44.4541  132.2652 C   0  0  0  0  0  0  0  0  0  0  0  0
   11.1546   44.4889  133.4655 C   0  0  0  0  0  0  0  0  0  0  0  0
   12.5232   44.4896  133.4766 C   0  0  0  0  0  0  0  0  0  0  0  0
   13.2734   44.4566  132.3050 C   0  0  0  0  0  0  0  0  0  0  0  0
   12.5911   44.4213  131.1026 C   0  0  0  0  0  0  0  0  0  0  0  0
   11.2100   44.4218  131.1203 C   0  0  0  0  0  0  0  0  0  0  0  0
   13.3280   44.3765  129.8058 C   0  0  0  0  0  0  0  0  0  0  0  0
   14.5463   43.7149  130.0091 F   0  0  0  0  0  0  0  0  0  0  0  0
   12.5790   43.7388  128.8752 F   0  0  0  0  0  0  0  0  0  0  0  0
   13.6072   45.6689  129.4284 F   0  0  0  0  0  0  0  0  0  0  0  0
    3.8581   46.6634  129.5818 C   0  0  0  0  0  0  0  0  0  0  0  0
    4.8116   47.8234  129.6999 C   0  0  0  0  0  0  0  0  0  0  0  0
    4.1193   49.0709  129.2624 C   0  0  0  0  0  0  0  0  0  0  0  0
    7.0372   52.0266  129.3871 C   0  0  0  0  0  0  0  0  0  0  0  0
    6.1285   52.7556  129.8651 O   0  0  0  0  0  0  0  0  0  0  0  0
    7.5191   52.3275  128.1024 N   0  0  0  0  0  0  0  0  0  0  0  0
    8.2973   51.7379  127.6637 H   0  0  0  0  0  0  0  0  0  0  0  0
    7.0645   53.4088  127.2581 C   0  0  0  0  0  0  0  0  0  0  0  0
    5.6363   53.3775  126.9080 C   0  0  0  0  0  0  0  0  0  0  0  0
    4.8916   52.4301  127.3319 O   0  0  0  0  0  0  0  0  0  0  0  0
    4.9883   54.3797  126.0852 N   0  0  0  0  0  0  0  0  0  0  0  0
    5.4933   55.1668  125.6695 H   0  0  0  0  0  0  0  0  0  0  0  0
    3.5550   54.2224  125.8633 C   0  0  0  0  0  0  0  0  0  0  0  0
    3.3066   53.8632  124.4105 C   0  0  0  0  0  0  0  0  0  0  0  0
    3.9938   54.5224  123.3699 N   0  0  0  0  0  0  0  0  0  0  0  0
    2.4557   52.9641  124.1755 O   0  0  0  0  0  0  0  0  0  0  0  0
    4.7235   54.1099  122.7811 H   0  0  0  0  0  0  0  0  0  0  0  0
    3.7689   55.5502  123.1425 H   0  0  0  0  0  0  0  0  0  0  0  0
    2.7747   55.4251  126.1927 C   0  0  0  0  0  0  0  0  0  0  0  0
    1.6056   55.2268  127.0453 C   0  0  0  0  0  0  0  0  0  0  0  0
    0.9722   53.9820  127.0928 C   0  0  0  0  0  0  0  0  0  0  0  0
   -0.1373   53.8278  127.9337 C   0  0  0  0  0  0  0  0  0  0  0  0
   -0.5832   54.8590  128.6825 C   0  0  0  0  0  0  0  0  0  0  0  0
    0.0083   56.1106  128.6745 C   0  0  0  0  0  0  0  0  0  0  0  0
    1.1021   56.2392  127.8348 C   0  0  0  0  0  0  0  0  0  0  0  0
    8.0159   53.9646  126.2909 C   0  0  0  0  0  0  0  0  0  0  0  0
    8.3223   55.4367  126.3627 C   0  0  0  0  0  0  0  0  0  0  0  0
    7.7176   56.0217  125.0774 C   0  0  0  0  0  0  0  0  0  0  0  0
    7.4284   55.0628  124.0761 N   0  0  0  0  0  0  0  0  0  0  0  0
    6.7119   54.2846  124.3024 H   0  0  0  0  0  0  0  0  0  0  0  0
    7.9784   55.0014  122.7745 C   0  0  0  0  0  0  0  0  0  0  0  0
    7.2292   54.2546  121.7675 N   0  0  0  0  0  0  0  0  0  0  0  0
    9.0474   55.5758  122.4985 N   0  0  0  0  0  0  0  0  0  0  0  0
    6.3532   54.6316  121.3701 H   0  0  0  0  0  0  0  0  0  0  0  0
    7.5744   53.3346  121.4435 H   0  0  0  0  0  0  0  0  0  0  0  0
    9.6970   56.1262  122.9868 H   0  0  0  0  0  0  0  0  0  0  0  0
    9.0137   50.7467  130.2463 C   0  0  0  0  0  0  0  0  0  0  0  0
    9.5464   49.3638  130.4817 C   0  0  0  0  0  0  0  0  0  0  0  0
   10.2212   49.4066  131.8437 C   0  0  0  0  0  0  0  0  0  0  0  0
   10.3852   48.1438  132.4734 N   0  0  0  0  0  0  0  0  0  0  0  0
   10.8725   47.3375  131.9412 H   0  0  0  0  0  0  0  0  0  0  0  0
    9.9494   47.8446  133.7567 C   0  0  0  0  0  0  0  0  0  0  0  0
    8.6557   48.0917  134.2127 N   0  0  0  0  0  0  0  0  0  0  0  0
   10.7956   47.3200  134.6053 N   0  0  0  0  0  0  0  0  0  0  0  0
    7.9053   47.3883  134.0486 H   0  0  0  0  0  0  0  0  0  0  0  0
    8.4069   48.9631  134.7186 H   0  0  0  0  0  0  0  0  0  0  0  0
   11.7682   47.1339  134.3081 H   0  0  0  0  0  0  0  0  0  0  0  0
 29 30  1  0  0  0
 30 31  1  0  0  0
 30  6  1  0  0  0
  6  7  1  0  0  0
  7  8  1  0  0  0
  8  9  2  0  0  0
  8 11  1  0  0  0
 11 12  1  0  0  0
 12 13  1  0  0  0
 13 14  1  0  0  0
 14 15  1  0  0  0
 15 16  1  0  0  0
 16 17  2  0  0  0
 16 18  2  0  0  0
 16 19  1  0  0  0
 19 20  2  0  0  0
 20 21  1  0  0  0
 21 22  2  0  0  0
 22 23  1  0  0  0
 23 24  2  0  0  0
 23 25  1  0  0  0
 25 26  1  0  0  0
 25 27  1  0  0  0
 25 28  1  0  0  0
  6  2  1  0  0  0
  2  3  2  0  0  0
  2  4  1  0  0  0
  4  1  1  0  0  0
  1 65  1  0  0  0
 65 66  1  0  0  0
 66 67  1  0  0  0
 67 68  1  0  0  0
 68 70  1  0  0  0
 70 71  1  0  0  0
 70 72  2  0  0  0
  1 32  1  0  0  0
 32 33  2  0  0  0
 32 34  1  0  0  0
 34 36  1  0  0  0
 36 54  1  0  0  0
 54 55  1  0  0  0
 55 56  1  0  0  0
 56 57  1  0  0  0
 57 59  1  0  0  0
 59 60  1  0  0  0
 59 61  2  0  0  0
 36 37  1  0  0  0
 37 38  2  0  0  0
 37 39  1  0  0  0
 39 41  1  0  0  0
 41 47  1  0  0  0
 47 48  1  0  0  0
 48 49  2  0  0  0
 49 50  1  0  0  0
 50 51  2  0  0  0
 51 52  1  0  0  0
 52 53  2  0  0  0
 41 42  1  0  0  0
 42 43  1  0  0  0
 42 44  2  0  0  0
 15 11  1  0  0  0
 24 19  1  0  0  0
 53 48  1  0  0  0
  7 10  1  0  0  0
  4  5  1  0  0  0
 68 69  1  0  0  0
 71 73  1  0  0  0
 71 74  1  0  0  0
 72 75  1  0  0  0
 34 35  1  0  0  0
 57 58  1  0  0  0
 60 62  1  0  0  0
 60 63  1  0  0  0
 61 64  1  0  0  0
 39 40  1  0  0  0
 43 45  1  0  0  0
 43 46  1  0  0  0
M  END
> <minimizedAffinity>
8.11675

> <CNNscore>
0.4500252306

> <CNNaffinity>
8.1209545135

> <CNN_VS>
3.6546344757

> <CNNaffinity_variance>
0.3134815097

$$$$
[H]N=C(N([H])[H])N([H])C([H])([H])C([H])([H])C([H])([H])[C@@]([H])(C(=O)N([H])[C@]([H])(C(=O)N([H])[H])C([H])([H])c1c([H])c([H])c([H])c([H])c1[H])N([H])C(=O)[C@@]([H])(N([H])C(=O)[C@@]([H])(N([H])C(=O)[C@@]1([H])N(S(=O)(=O)c2c([H])c([H])c([H])c(C(F)(F)F)c2[H])C([H])([H])C([H])([H])C1([H])[H])C([H])(C([H])([H])[H])C([H])([H])[H])C([H])([H])C([H])([H])C([H])([H])N([H])C(=N[H])N([H])[H]


 75 77  0  0  0  0  0  0  0  0999 V2000
    8.8577   49.2060  130.7507 C   0  0  0  0  0  0  0  0  0  0  0  0
    9.2312   48.0688  133.0127 C   0  0  0  0  0  0  0  0  0  0  0  0
   10.3705   48.5446  133.1589 O   0  0  0  0  0  0  0  0  0  0  0  0
    8.4834   48.3501  131.8604 N   0  0  0  0  0  0  0  0  0  0  0  0
    7.5272   47.9092  131.7538 H   0  0  0  0  0  0  0  0  0  0  0  0
    8.6561   47.2021  134.0563 C   0  0  0  0  0  0  0  0  0  0  0  0
    8.7675   45.7897  133.8349 N   0  0  0  0  0  0  0  0  0  0  0  0
    7.9574   45.1123  132.8536 C   0  0  0  0  0  0  0  0  0  0  0  0
    7.1337   45.7468  132.1691 O   0  0  0  0  0  0  0  0  0  0  0  0
    9.4424   45.2370  134.3824 H   0  0  0  0  0  0  0  0  0  0  0  0
    8.1358   43.6439  132.6995 C   0  0  0  0  0  0  0  0  0  0  0  0
    8.2692   43.0178  134.0957 C   0  0  0  0  0  0  0  0  0  0  0  0
    9.0986   41.8141  133.8662 C   0  0  0  0  0  0  0  0  0  0  0  0
   10.0229   42.2503  132.7603 C   0  0  0  0  0  0  0  0  0  0  0  0
    9.3407   43.2758  132.0424 N   0  0  0  0  0  0  0  0  0  0  0  0
    9.1414   42.8466  130.3866 S   0  0  0  0  0  0  0  0  0  0  0  0
    7.8227   43.4137  129.8649 O   0  0  0  0  0  0  0  0  0  0  0  0
    9.0402   41.3392  130.2469 O   0  0  0  0  0  0  0  0  0  0  0  0
   10.3996   43.4687  129.3522 C   0  0  0  0  0  0  0  0  0  0  0  0
   10.1507   43.7064  128.0068 C   0  0  0  0  0  0  0  0  0  0  0  0
   11.1350   44.1966  127.1919 C   0  0  0  0  0  0  0  0  0  0  0  0
   12.4145   44.4766  127.6618 C   0  0  0  0  0  0  0  0  0  0  0  0
   12.6757   44.2448  128.9999 C   0  0  0  0  0  0  0  0  0  0  0  0
   11.6644   43.7494  129.7997 C   0  0  0  0  0  0  0  0  0  0  0  0
   14.0220   44.5289  129.5771 C   0  0  0  0  0  0  0  0  0  0  0  0
   13.8540   45.2733  130.7523 F   0  0  0  0  0  0  0  0  0  0  0  0
   14.6677   43.3654  129.8281 F   0  0  0  0  0  0  0  0  0  0  0  0
   14.7159   45.3067  128.6802 F   0  0  0  0  0  0  0  0  0  0  0  0
    9.8574   46.3553  136.0963 C   0  0  0  0  0  0  0  0  0  0  0  0
    9.2953   47.5738  135.4123 C   0  0  0  0  0  0  0  0  0  0  0  0
    8.2457   48.1814  136.2818 C   0  0  0  0  0  0  0  0  0  0  0  0
    7.7546   50.0746  130.3290 C   0  0  0  0  0  0  0  0  0  0  0  0
    6.8795   50.3981  131.1747 O   0  0  0  0  0  0  0  0  0  0  0  0
    7.6225   50.5662  129.0198 N   0  0  0  0  0  0  0  0  0  0  0  0
    8.3498   50.3221  128.2734 H   0  0  0  0  0  0  0  0  0  0  0  0
    6.5603   51.4193  128.5376 C   0  0  0  0  0  0  0  0  0  0  0  0
    6.9680   52.7809  128.1592 C   0  0  0  0  0  0  0  0  0  0  0  0
    7.1605   53.6673  129.0588 O   0  0  0  0  0  0  0  0  0  0  0  0
    7.1736   53.2068  126.7889 N   0  0  0  0  0  0  0  0  0  0  0  0
    7.0214   52.5888  125.9876 H   0  0  0  0  0  0  0  0  0  0  0  0
    7.6145   54.5827  126.5868 C   0  0  0  0  0  0  0  0  0  0  0  0
    6.4710   55.3992  126.0148 C   0  0  0  0  0  0  0  0  0  0  0  0
    5.3125   54.7742  125.5080 N   0  0  0  0  0  0  0  0  0  0  0  0
    6.6064   56.6518  126.0013 O   0  0  0  0  0  0  0  0  0  0  0  0
    4.3860   54.7899  125.9448 H   0  0  0  0  0  0  0  0  0  0  0  0
    5.3597   54.2169  124.5883 H   0  0  0  0  0  0  0  0  0  0  0  0
    8.7746   54.7014  125.6901 C   0  0  0  0  0  0  0  0  0  0  0  0
    8.4822   54.8612  124.2682 C   0  0  0  0  0  0  0  0  0  0  0  0
    7.7521   53.8843  123.5858 C   0  0  0  0  0  0  0  0  0  0  0  0
    7.4797   54.0809  122.2260 C   0  0  0  0  0  0  0  0  0  0  0  0
    7.9119   55.1907  121.5900 C   0  0  0  0  0  0  0  0  0  0  0  0
    8.6361   56.1890  122.2188 C   0  0  0  0  0  0  0  0  0  0  0  0
    8.8942   55.9718  123.5621 C   0  0  0  0  0  0  0  0  0  0  0  0
    5.2170   51.2124  129.0874 C   0  0  0  0  0  0  0  0  0  0  0  0
    4.4373   50.0115  128.6225 C   0  0  0  0  0  0  0  0  0  0  0  0
    3.0405   50.5599  128.2936 C   0  0  0  0  0  0  0  0  0  0  0  0
    3.0168   51.5161  127.2492 N   0  0  0  0  0  0  0  0  0  0  0  0
    3.9555   51.9436  126.9233 H   0  0  0  0  0  0  0  0  0  0  0  0
    1.8779   51.9907  126.5577 C   0  0  0  0  0  0  0  0  0  0  0  0
    0.5838   51.8353  127.2166 N   0  0  0  0  0  0  0  0  0  0  0  0
    1.9804   52.5333  125.4423 N   0  0  0  0  0  0  0  0  0  0  0  0
    0.3265   52.4234  128.0262 H   0  0  0  0  0  0  0  0  0  0  0  0
   -0.0892   51.1281  126.8735 H   0  0  0  0  0  0  0  0  0  0  0  0
    2.7166   52.7518  124.8311 H   0  0  0  0  0  0  0  0  0  0  0  0
    9.6264   48.5434  129.6695 C   0  0  0  0  0  0  0  0  0  0  0  0
    9.7245   47.0467  129.7123 C   0  0  0  0  0  0  0  0  0  0  0  0
    8.6847   46.5355  128.7276 C   0  0  0  0  0  0  0  0  0  0  0  0
    7.4208   46.2227  129.2959 N   0  0  0  0  0  0  0  0  0  0  0  0
    7.3217   45.3620  129.9441 H   0  0  0  0  0  0  0  0  0  0  0  0
    6.2595   46.9497  129.0744 C   0  0  0  0  0  0  0  0  0  0  0  0
    5.0908   46.7876  129.8162 N   0  0  0  0  0  0  0  0  0  0  0  0
    6.2381   47.8260  128.1033 N   0  0  0  0  0  0  0  0  0  0  0  0
    4.9665   47.3107  130.7082 H   0  0  0  0  0  0  0  0  0  0  0  0
    4.3263   46.1564  129.5089 H   0  0  0  0  0  0  0  0  0  0  0  0
    7.0819   47.9655  127.5222 H   0  0  0  0  0  0  0  0  0  0  0  0
 29 30  1  0  0  0
 30 31  1  0  0  0
 30  6  1  0  0  0
  6  7  1  0  0  0
  7  8  1  0  0  0
  8  9  2  0  0  0
  8 11  1  0  0  0
 11 12  1  0  0  0
 12 13  1  0  0  0
 13 14  1  0  0  0
 14 15  1  0  0  0
 15 16  1  0  0  0
 16 17  2  0  0  0
 16 18  2  0  0  0
 16 19  1  0  0  0
 19 20  2  0  0  0
 20 21  1  0  0  0
 21 22  2  0  0  0
 22 23  1  0  0  0
 23 24  2  0  0  0
 23 25  1  0  0  0
 25 26  1  0  0  0
 25 27  1  0  0  0
 25 28  1  0  0  0
  6  2  1  0  0  0
  2  3  2  0  0  0
  2  4  1  0  0  0
  4  1  1  0  0  0
  1 65  1  0  0  0
 65 66  1  0  0  0
 66 67  1  0  0  0
 67 68  1  0  0  0
 68 70  1  0  0  0
 70 71  1  0  0  0
 70 72  2  0  0  0
  1 32  1  0  0  0
 32 33  2  0  0  0
 32 34  1  0  0  0
 34 36  1  0  0  0
 36 54  1  0  0  0
 54 55  1  0  0  0
 55 56  1  0  0  0
 56 57  1  0  0  0
 57 59  1  0  0  0
 59 60  1  0  0  0
 59 61  2  0  0  0
 36 37  1  0  0  0
 37 38  2  0  0  0
 37 39  1  0  0  0
 39 41  1  0  0  0
 41 47  1  0  0  0
 47 48  1  0  0  0
 48 49  2  0  0  0
 49 50  1  0  0  0
 50 51  2  0  0  0
 51 52  1  0  0  0
 52 53  2  0  0  0
 41 42  1  0  0  0
 42 43  1  0  0  0
 42 44  2  0  0  0
 15 11  1  0  0  0
 24 19  1  0  0  0
 53 48  1  0  0  0
  7 10  1  0  0  0
  4  5  1  0  0  0
 68 69  1  0  0  0
 71 73  1  0  0  0
 71 74  1  0  0  0
 72 75  1  0  0  0
 34 35  1  0  0  0
 57 58  1  0  0  0
 60 62  1  0  0  0
 60 63  1  0  0  0
 61 64  1  0  0  0
 39 40  1  0  0  0
 43 45  1  0  0  0
 43 46  1  0  0  0
M  END
> <minimizedAffinity>
4.92307

> <CNNscore>
0.4446046948

> <CNNaffinity>
8.3519268036

> <CNN_VS>
3.7133059502

> <CNNaffinity_variance>
0.4507617950

$$$$
[H]N=C(N([H])[H])N([H])C([H])([H])C([H])([H])C([H])([H])[C@@]([H])(C(=O)N([H])[C@]([H])(C(=O)N([H])[H])C([H])([H])c1c([H])c([H])c([H])c([H])c1[H])N([H])C(=O)[C@@]([H])(N([H])C(=O)[C@@]([H])(N([H])C(=O)[C@@]1([H])N(S(=O)(=O)c2c([H])c([H])c([H])c(C(F)(F)F)c2[H])C([H])([H])C([H])([H])C1([H])[H])C([H])(C([H])([H])[H])C([H])([H])[H])C([H])([H])C([H])([H])C([H])([H])N([H])C(=N[H])N([H])[H]


 75 77  0  0  0  0  0  0  0  0999 V2000
    7.1692   47.6040  128.5914 C   0  0  0  0  0  0  0  0  0  0  0  0
    9.4250   46.4934  129.0683 C   0  0  0  0  0  0  0  0  0  0  0  0
    8.9885   45.3412  128.9014 O   0  0  0  0  0  0  0  0  0  0  0  0
    8.5759   47.6024  128.9457 N   0  0  0  0  0  0  0  0  0  0  0  0
    8.9719   48.5684  129.1191 H   0  0  0  0  0  0  0  0  0  0  0  0
   10.8462   46.7014  129.3970 C   0  0  0  0  0  0  0  0  0  0  0  0
   11.2764   46.2108  130.6739 N   0  0  0  0  0  0  0  0  0  0  0  0
   10.6261   46.6125  131.8961 C   0  0  0  0  0  0  0  0  0  0  0  0
    9.6655   47.4037  131.8687 O   0  0  0  0  0  0  0  0  0  0  0  0
   12.0660   45.5519  130.7300 H   0  0  0  0  0  0  0  0  0  0  0  0
   11.1469   46.0589  133.1745 C   0  0  0  0  0  0  0  0  0  0  0  0
   11.7850   47.2012  133.9788 C   0  0  0  0  0  0  0  0  0  0  0  0
   12.8222   46.5266  134.7901 C   0  0  0  0  0  0  0  0  0  0  0  0
   13.2917   45.4214  133.8815 C   0  0  0  0  0  0  0  0  0  0  0  0
   12.2041   45.1241  133.0090 N   0  0  0  0  0  0  0  0  0  0  0  0
   11.7226   43.4773  133.1568 S   0  0  0  0  0  0  0  0  0  0  0  0
   11.2414   43.2094  134.5814 O   0  0  0  0  0  0  0  0  0  0  0  0
   12.9126   42.5635  132.9318 O   0  0  0  0  0  0  0  0  0  0  0  0
   10.4119   43.0395  132.0935 C   0  0  0  0  0  0  0  0  0  0  0  0
    9.1426   42.7997  132.6035 C   0  0  0  0  0  0  0  0  0  0  0  0
    8.1106   42.4578  131.7720 C   0  0  0  0  0  0  0  0  0  0  0  0
    8.2777   42.3344  130.3961 C   0  0  0  0  0  0  0  0  0  0  0  0
    9.5367   42.5710  129.8751 C   0  0  0  0  0  0  0  0  0  0  0  0
   10.5603   42.9140  130.7367 C   0  0  0  0  0  0  0  0  0  0  0  0
    9.7900   42.4658  128.4084 C   0  0  0  0  0  0  0  0  0  0  0  0
   11.0004   43.1095  128.1187 F   0  0  0  0  0  0  0  0  0  0  0  0
    9.8342   41.1626  128.0435 F   0  0  0  0  0  0  0  0  0  0  0  0
    8.7863   43.1389  127.7522 F   0  0  0  0  0  0  0  0  0  0  0  0
   10.8421   45.5434  127.1652 C   0  0  0  0  0  0  0  0  0  0  0  0
   11.7070   46.0774  128.2767 C   0  0  0  0  0  0  0  0  0  0  0  0
   12.5031   44.9567  128.8574 C   0  0  0  0  0  0  0  0  0  0  0  0
    6.5729   48.9378  128.7109 C   0  0  0  0  0  0  0  0  0  0  0  0
    5.3522   49.0327  129.0048 O   0  0  0  0  0  0  0  0  0  0  0  0
    7.2990   50.1236  128.5109 N   0  0  0  0  0  0  0  0  0  0  0  0
    8.3408   50.0867  128.2685 H   0  0  0  0  0  0  0  0  0  0  0  0
    6.7731   51.4663  128.6074 C   0  0  0  0  0  0  0  0  0  0  0  0
    7.2262   52.3973  127.5629 C   0  0  0  0  0  0  0  0  0  0  0  0
    7.6940   51.9493  126.4619 O   0  0  0  0  0  0  0  0  0  0  0  0
    7.1805   53.8400  127.6972 N   0  0  0  0  0  0  0  0  0  0  0  0
    6.8511   54.3075  128.5459 H   0  0  0  0  0  0  0  0  0  0  0  0
    7.6334   54.6220  126.5519 C   0  0  0  0  0  0  0  0  0  0  0  0
    6.5877   55.6665  126.2100 C   0  0  0  0  0  0  0  0  0  0  0  0
    6.8968   57.0424  126.2376 N   0  0  0  0  0  0  0  0  0  0  0  0
    5.4346   55.2535  125.9142 O   0  0  0  0  0  0  0  0  0  0  0  0
    6.9860   57.6509  125.4182 H   0  0  0  0  0  0  0  0  0  0  0  0
    7.0674   57.5374  127.1780 H   0  0  0  0  0  0  0  0  0  0  0  0
    7.8988   53.8096  125.3547 C   0  0  0  0  0  0  0  0  0  0  0  0
    8.1046   54.5403  124.1070 C   0  0  0  0  0  0  0  0  0  0  0  0
    9.0688   55.5492  124.0333 C   0  0  0  0  0  0  0  0  0  0  0  0
    9.2461   56.2170  122.8149 C   0  0  0  0  0  0  0  0  0  0  0  0
    8.5027   55.8913  121.7359 C   0  0  0  0  0  0  0  0  0  0  0  0
    7.5370   54.8996  121.7543 C   0  0  0  0  0  0  0  0  0  0  0  0
    7.3790   54.2547  122.9697 C   0  0  0  0  0  0  0  0  0  0  0  0
    6.4884   51.9922  129.9461 C   0  0  0  0  0  0  0  0  0  0  0  0
    5.8981   51.0552  130.9658 C   0  0  0  0  0  0  0  0  0  0  0  0
    7.0756   50.1742  131.4100 C   0  0  0  0  0  0  0  0  0  0  0  0
    8.3515   50.7540  131.2061 N   0  0  0  0  0  0  0  0  0  0  0  0
    8.4009   51.7627  130.8185 H   0  0  0  0  0  0  0  0  0  0  0  0
    9.6073   50.1547  131.4599 C   0  0  0  0  0  0  0  0  0  0  0  0
   10.0041   50.0021  132.8572 N   0  0  0  0  0  0  0  0  0  0  0  0
   10.3331   49.7595  130.5293 N   0  0  0  0  0  0  0  0  0  0  0  0
    9.5545   49.2956  133.4623 H   0  0  0  0  0  0  0  0  0  0  0  0
   10.7446   50.6067  133.2531 H   0  0  0  0  0  0  0  0  0  0  0  0
   10.2751   49.7437  129.5497 H   0  0  0  0  0  0  0  0  0  0  0  0
    6.3765   46.4754  129.1363 C   0  0  0  0  0  0  0  0  0  0  0  0
    6.0423   46.5116  130.5986 C   0  0  0  0  0  0  0  0  0  0  0  0
    7.3297   46.1571  131.3261 C   0  0  0  0  0  0  0  0  0  0  0  0
    7.1544   45.5939  132.6185 N   0  0  0  0  0  0  0  0  0  0  0  0
    6.4055   44.8285  132.7738 H   0  0  0  0  0  0  0  0  0  0  0  0
    7.8836   45.9627  133.7404 C   0  0  0  0  0  0  0  0  0  0  0  0
    8.1062   47.2854  134.1191 N   0  0  0  0  0  0  0  0  0  0  0  0
    8.4169   45.0272  134.4832 N   0  0  0  0  0  0  0  0  0  0  0  0
    7.4026   47.7822  134.7046 H   0  0  0  0  0  0  0  0  0  0  0  0
    8.9604   47.8029  133.8368 H   0  0  0  0  0  0  0  0  0  0  0  0
    8.2848   44.0341  134.2272 H   0  0  0  0  0  0  0  0  0  0  0  0
 29 30  1  0  0  0
 30 31  1  0  0  0
 30  6  1  0  0  0
  6  7  1  0  0  0
  7  8  1  0  0  0
  8  9  2  0  0  0
  8 11  1  0  0  0
 11 12  1  0  0  0
 12 13  1  0  0  0
 13 14  1  0  0  0
 14 15  1  0  0  0
 15 16  1  0  0  0
 16 17  2  0  0  0
 16 18  2  0  0  0
 16 19  1  0  0  0
 19 20  2  0  0  0
 20 21  1  0  0  0
 21 22  2  0  0  0
 22 23  1  0  0  0
 23 24  2  0  0  0
 23 25  1  0  0  0
 25 26  1  0  0  0
 25 27  1  0  0  0
 25 28  1  0  0  0
  6  2  1  0  0  0
  2  3  2  0  0  0
  2  4  1  0  0  0
  4  1  1  0  0  0
  1 65  1  0  0  0
 65 66  1  0  0  0
 66 67  1  0  0  0
 67 68  1  0  0  0
 68 70  1  0  0  0
 70 71  1  0  0  0
 70 72  2  0  0  0
  1 32  1  0  0  0
 32 33  2  0  0  0
 32 34  1  0  0  0
 34 36  1  0  0  0
 36 54  1  0  0  0
 54 55  1  0  0  0
 55 56  1  0  0  0
 56 57  1  0  0  0
 57 59  1  0  0  0
 59 60  1  0  0  0
 59 61  2  0  0  0
 36 37  1  0  0  0
 37 38  2  0  0  0
 37 39  1  0  0  0
 39 41  1  0  0  0
 41 47  1  0  0  0
 47 48  1  0  0  0
 48 49  2  0  0  0
 49 50  1  0  0  0
 50 51  2  0  0  0
 51 52  1  0  0  0
 52 53  2  0  0  0
 41 42  1  0  0  0
 42 43  1  0  0  0
 42 44  2  0  0  0
 15 11  1  0  0  0
 24 19  1  0  0  0
 53 48  1  0  0  0
  7 10  1  0  0  0
  4  5  1  0  0  0
 68 69  1  0  0  0
 71 73  1  0  0  0
 71 74  1  0  0  0
 72 75  1  0  0  0
 34 35  1  0  0  0
 57 58  1  0  0  0
 60 62  1  0  0  0
 60 63  1  0  0  0
 61 64  1  0  0  0
 39 40  1  0  0  0
 43 45  1  0  0  0
 43 46  1  0  0  0
M  END
> <minimizedAffinity>
4.58172

> <CNNscore>
0.4354848266

> <CNNaffinity>
8.5039300919

> <CNN_VS>
3.7033324242

> <CNNaffinity_variance>
0.3647155762

$$$$
[H]OC(=O)C([H])([H])Oc1c([H])c([H])c(N([H])C(=O)c2c([H])c([H])c([H])c(OC([H])([H])C([H])([H])[H])c2[H])c(F)c1[H]


 26 27  0  0  0  0  0  0  0  0999 V2000
    9.5083   46.0491  129.7284 C   0  0  0  0  0  0  0  0  0  0  0  0
   10.1072   46.3320  128.6620 O   0  0  0  0  0  0  0  0  0  0  0  0
    8.5730   46.9006  130.3102 N   0  0  0  0  0  0  0  0  0  0  0  0
    8.1215   46.5645  131.2318 H   0  0  0  0  0  0  0  0  0  0  0  0
    8.1230   48.1704  129.8643 C   0  0  0  0  0  0  0  0  0  0  0  0
    7.4529   48.4022  128.6888 C   0  0  0  0  0  0  0  0  0  0  0  0
    7.0246   49.6714  128.2830 C   0  0  0  0  0  0  0  0  0  0  0  0
    7.2903   50.7432  129.1077 C   0  0  0  0  0  0  0  0  0  0  0  0
    7.9576   50.5726  130.2968 C   0  0  0  0  0  0  0  0  0  0  0  0
    8.3558   49.3084  130.6481 C   0  0  0  0  0  0  0  0  0  0  0  0
    9.0186   49.1248  131.8251 F   0  0  0  0  0  0  0  0  0  0  0  0
    6.8855   52.0113  128.7451 O   0  0  0  0  0  0  0  0  0  0  0  0
    7.0085   52.4300  127.4102 C   0  0  0  0  0  0  0  0  0  0  0  0
    7.0194   53.9133  127.3254 C   0  0  0  0  0  0  0  0  0  0  0  0
    6.2742   54.5523  126.3525 O   0  0  0  0  0  0  0  0  0  0  0  0
    7.7031   54.5816  128.1349 O   0  0  0  0  0  0  0  0  0  0  0  0
    5.6360   55.3063  126.5312 H   0  0  0  0  0  0  0  0  0  0  0  0
   11.1571   43.3352  131.8080 C   0  0  0  0  0  0  0  0  0  0  0  0
   10.2876   42.3132  131.5320 C   0  0  0  0  0  0  0  0  0  0  0  0
    9.1899   42.4873  130.6910 C   0  0  0  0  0  0  0  0  0  0  0  0
    8.9718   43.7069  130.1251 C   0  0  0  0  0  0  0  0  0  0  0  0
    9.8228   44.7553  130.3787 C   0  0  0  0  0  0  0  0  0  0  0  0
   10.8994   44.5699  131.2088 C   0  0  0  0  0  0  0  0  0  0  0  0
   12.2374   43.1718  132.6337 O   0  0  0  0  0  0  0  0  0  0  0  0
   11.3407   44.1545  134.6841 C   0  0  0  0  0  0  0  0  0  0  0  0
   12.5155   43.8324  133.8211 C   0  0  0  0  0  0  0  0  0  0  0  0
 25 26  1  0  0  0
 26 24  1  0  0  0
 24 18  1  0  0  0
 18 19  2  0  0  0
 19 20  1  0  0  0
 20 21  2  0  0  0
 21 22  1  0  0  0
 22 23  2  0  0  0
 22  1  1  0  0  0
  1  2  2  0  0  0
  1  3  1  0  0  0
  3  5  1  0  0  0
  5  6  2  0  0  0
  6  7  1  0  0  0
  7  8  2  0  0  0
  8 12  1  0  0  0
 12 13  1  0  0  0
 13 14  1  0  0  0
 14 15  1  0  0  0
 14 16  2  0  0  0
  8  9  1  0  0  0
  9 10  2  0  0  0
 10 11  1  0  0  0
 23 18  1  0  0  0
 10  5  1  0  0  0
  3  4  1  0  0  0
 15 17  1  0  0  0
M  END
> <minimizedAffinity>
-3.72881

> <CNNscore>
0.5939259529

> <CNNaffinity>
6.5620169640

> <CNN_VS>
3.8973522186

> <CNNaffinity_variance>
0.2621614337

$$$$
[H]OC(=O)C([H])([H])Oc1c([H])c([H])c(N([H])C(=O)c2c([H])c([H])c([H])c(OC([H])([H])C([H])([H])[H])c2[H])c(F)c1[H]


 26 27  0  0  0  0  0  0  0  0999 V2000
    9.8774   46.2570  130.0500 C   0  0  0  0  0  0  0  0  0  0  0  0
   10.1859   46.2745  128.8333 O   0  0  0  0  0  0  0  0  0  0  0  0
    9.0428   47.2120  130.6245 N   0  0  0  0  0  0  0  0  0  0  0  0
    8.8472   47.1092  131.6815 H   0  0  0  0  0  0  0  0  0  0  0  0
    8.4056   48.3234  130.0143 C   0  0  0  0  0  0  0  0  0  0  0  0
    7.6411   48.2676  128.8754 C   0  0  0  0  0  0  0  0  0  0  0  0
    7.0279   49.3880  128.3029 C   0  0  0  0  0  0  0  0  0  0  0  0
    7.2016   50.6102  128.9158 C   0  0  0  0  0  0  0  0  0  0  0  0
    7.9562   50.7278  130.0584 C   0  0  0  0  0  0  0  0  0  0  0  0
    8.5357   49.5993  130.5789 C   0  0  0  0  0  0  0  0  0  0  0  0
    9.2867   49.7016  131.7119 F   0  0  0  0  0  0  0  0  0  0  0  0
    6.6144   51.7397  128.3842 O   0  0  0  0  0  0  0  0  0  0  0  0
    7.3156   52.9566  128.3797 C   0  0  0  0  0  0  0  0  0  0  0  0
    7.1430   53.6556  127.0801 C   0  0  0  0  0  0  0  0  0  0  0  0
    7.8038   53.1939  125.9574 O   0  0  0  0  0  0  0  0  0  0  0  0
    6.3998   54.6611  127.0039 O   0  0  0  0  0  0  0  0  0  0  0  0
    7.3622   53.0116  125.0745 H   0  0  0  0  0  0  0  0  0  0  0  0
   11.0090   44.1794  133.0185 C   0  0  0  0  0  0  0  0  0  0  0  0
   11.4743   43.0873  132.3348 C   0  0  0  0  0  0  0  0  0  0  0  0
   11.4295   43.0156  130.9436 C   0  0  0  0  0  0  0  0  0  0  0  0
   10.9091   44.0591  130.2397 C   0  0  0  0  0  0  0  0  0  0  0  0
   10.4331   45.1711  130.8913 C   0  0  0  0  0  0  0  0  0  0  0  0
   10.4831   45.2282  132.2612 C   0  0  0  0  0  0  0  0  0  0  0  0
   11.0492   44.2568  134.3852 O   0  0  0  0  0  0  0  0  0  0  0  0
    9.2612   45.8957  134.6878 C   0  0  0  0  0  0  0  0  0  0  0  0
   10.4919   45.2271  135.2048 C   0  0  0  0  0  0  0  0  0  0  0  0
 25 26  1  0  0  0
 26 24  1  0  0  0
 24 18  1  0  0  0
 18 19  2  0  0  0
 19 20  1  0  0  0
 20 21  2  0  0  0
 21 22  1  0  0  0
 22 23  2  0  0  0
 22  1  1  0  0  0
  1  2  2  0  0  0
  1  3  1  0  0  0
  3  5  1  0  0  0
  5  6  2  0  0  0
  6  7  1  0  0  0
  7  8  2  0  0  0
  8 12  1  0  0  0
 12 13  1  0  0  0
 13 14  1  0  0  0
 14 15  1  0  0  0
 14 16  2  0  0  0
  8  9  1  0  0  0
  9 10  2  0  0  0
 10 11  1  0  0  0
 23 18  1  0  0  0
 10  5  1  0  0  0
  3  4  1  0  0  0
 15 17  1  0  0  0
M  END
> <minimizedAffinity>
-3.34233

> <CNNscore>
0.5753699541

> <CNNaffinity>
6.6610403061

> <CNN_VS>
3.8325624466

> <CNNaffinity_variance>
0.4583387971

$$$$
[H]OC(=O)C([H])([H])Oc1c([H])c([H])c(N([H])C(=O)c2c([H])c([H])c([H])c(OC([H])([H])C([H])([H])[H])c2[H])c(F)c1[H]


 26 27  0  0  0  0  0  0  0  0999 V2000
   10.5354   45.8816  130.0564 C   0  0  0  0  0  0  0  0  0  0  0  0
   10.7414   45.9971  128.8235 O   0  0  0  0  0  0  0  0  0  0  0  0
    9.7510   46.7824  130.7719 N   0  0  0  0  0  0  0  0  0  0  0  0
    9.6442   46.5952  131.8300 H   0  0  0  0  0  0  0  0  0  0  0  0
    9.0646   47.9338  130.3065 C   0  0  0  0  0  0  0  0  0  0  0  0
    8.2226   47.9666  129.2227 C   0  0  0  0  0  0  0  0  0  0  0  0
    7.5626   49.1240  128.7940 C   0  0  0  0  0  0  0  0  0  0  0  0
    7.7699   50.2907  129.4978 C   0  0  0  0  0  0  0  0  0  0  0  0
    8.6017   50.3191  130.5913 C   0  0  0  0  0  0  0  0  0  0  0  0
    9.2244   49.1577  130.9700 C   0  0  0  0  0  0  0  0  0  0  0  0
   10.0522   49.1716  132.0530 F   0  0  0  0  0  0  0  0  0  0  0  0
    7.1386   51.4541  129.1086 O   0  0  0  0  0  0  0  0  0  0  0  0
    5.7608   51.4449  128.8364 C   0  0  0  0  0  0  0  0  0  0  0  0
    5.0433   50.5666  129.7962 C   0  0  0  0  0  0  0  0  0  0  0  0
    4.1629   49.6098  129.3276 O   0  0  0  0  0  0  0  0  0  0  0  0
    5.2371   50.6944  131.0273 O   0  0  0  0  0  0  0  0  0  0  0  0
    4.1797   48.6431  129.5977 H   0  0  0  0  0  0  0  0  0  0  0  0
   11.1045   42.8530  132.2728 C   0  0  0  0  0  0  0  0  0  0  0  0
   12.4277   42.6406  131.9884 C   0  0  0  0  0  0  0  0  0  0  0  0
   13.1302   43.4551  131.1020 C   0  0  0  0  0  0  0  0  0  0  0  0
   12.4866   44.4931  130.4991 C   0  0  0  0  0  0  0  0  0  0  0  0
   11.1599   44.7369  130.7601 C   0  0  0  0  0  0  0  0  0  0  0  0
   10.4804   43.9269  131.6346 C   0  0  0  0  0  0  0  0  0  0  0  0
   10.4076   42.0567  133.1421 O   0  0  0  0  0  0  0  0  0  0  0  0
    8.1014   42.8291  132.8992 C   0  0  0  0  0  0  0  0  0  0  0  0
    9.2027   42.3276  133.7734 C   0  0  0  0  0  0  0  0  0  0  0  0
 25 26  1  0  0  0
 26 24  1  0  0  0
 24 18  1  0  0  0
 18 19  2  0  0  0
 19 20  1  0  0  0
 20 21  2  0  0  0
 21 22  1  0  0  0
 22 23  2  0  0  0
 22  1  1  0  0  0
  1  2  2  0  0  0
  1  3  1  0  0  0
  3  5  1  0  0  0
  5  6  2  0  0  0
  6  7  1  0  0  0
  7  8  2  0  0  0
  8 12  1  0  0  0
 12 13  1  0  0  0
 13 14  1  0  0  0
 14 15  1  0  0  0
 14 16  2  0  0  0
  8  9  1  0  0  0
  9 10  2  0  0  0
 10 11  1  0  0  0
 23 18  1  0  0  0
 10  5  1  0  0  0
  3  4  1  0  0  0
 15 17  1  0  0  0
M  END
> <minimizedAffinity>
-0.34759

> <CNNscore>
0.5121165514

> <CNNaffinity>
6.5928559303

> <CNN_VS>
3.3763105869

> <CNNaffinity_variance>
1.1447050571

$$$$
[H]OC(=O)C([H])([H])Oc1c([H])c([H])c(N([H])C(=O)c2c([H])c([H])c([H])c(OC([H])([H])C([H])([H])[H])c2[H])c(F)c1[H]


 26 27  0  0  0  0  0  0  0  0999 V2000
   10.5017   46.7006  132.5776 C   0  0  0  0  0  0  0  0  0  0  0  0
   10.5226   47.5561  133.4960 O   0  0  0  0  0  0  0  0  0  0  0  0
    9.9207   46.9483  131.3369 N   0  0  0  0  0  0  0  0  0  0  0  0
    9.9504   46.1412  130.6200 H   0  0  0  0  0  0  0  0  0  0  0  0
    9.2787   48.1248  130.8709 C   0  0  0  0  0  0  0  0  0  0  0  0
    9.2318   49.3189  131.5467 C   0  0  0  0  0  0  0  0  0  0  0  0
    8.5874   50.4592  131.0531 C   0  0  0  0  0  0  0  0  0  0  0  0
    7.9682   50.3772  129.8246 C   0  0  0  0  0  0  0  0  0  0  0  0
    7.9820   49.2084  129.1019 C   0  0  0  0  0  0  0  0  0  0  0  0
    8.6272   48.1200  129.6303 C   0  0  0  0  0  0  0  0  0  0  0  0
    8.6486   46.9543  128.9240 F   0  0  0  0  0  0  0  0  0  0  0  0
    7.3217   51.4781  129.3016 O   0  0  0  0  0  0  0  0  0  0  0  0
    5.9853   51.3710  128.8831 C   0  0  0  0  0  0  0  0  0  0  0  0
    5.2388   50.4243  129.7515 C   0  0  0  0  0  0  0  0  0  0  0  0
    4.7011   49.2719  129.2101 O   0  0  0  0  0  0  0  0  0  0  0  0
    5.0982   50.6717  130.9714 O   0  0  0  0  0  0  0  0  0  0  0  0
    4.8379   48.3514  129.5865 H   0  0  0  0  0  0  0  0  0  0  0  0
   11.4332   43.0245  132.4122 C   0  0  0  0  0  0  0  0  0  0  0  0
   12.3561   43.0044  133.4243 C   0  0  0  0  0  0  0  0  0  0  0  0
   12.6758   44.1493  134.1521 C   0  0  0  0  0  0  0  0  0  0  0  0
   12.0550   45.3238  133.8517 C   0  0  0  0  0  0  0  0  0  0  0  0
   11.1237   45.3821  132.8432 C   0  0  0  0  0  0  0  0  0  0  0  0
   10.8188   44.2475  132.1348 C   0  0  0  0  0  0  0  0  0  0  0  0
   11.1143   41.9039  131.6925 O   0  0  0  0  0  0  0  0  0  0  0  0
    9.0536   42.5768  130.5634 C   0  0  0  0  0  0  0  0  0  0  0  0
   10.3367   41.8139  130.5475 C   0  0  0  0  0  0  0  0  0  0  0  0
 25 26  1  0  0  0
 26 24  1  0  0  0
 24 18  1  0  0  0
 18 19  2  0  0  0
 19 20  1  0  0  0
 20 21  2  0  0  0
 21 22  1  0  0  0
 22 23  2  0  0  0
 22  1  1  0  0  0
  1  2  2  0  0  0
  1  3  1  0  0  0
  3  5  1  0  0  0
  5  6  2  0  0  0
  6  7  1  0  0  0
  7  8  2  0  0  0
  8 12  1  0  0  0
 12 13  1  0  0  0
 13 14  1  0  0  0
 14 15  1  0  0  0
 14 16  2  0  0  0
  8  9  1  0  0  0
  9 10  2  0  0  0
 10 11  1  0  0  0
 23 18  1  0  0  0
 10  5  1  0  0  0
  3  4  1  0  0  0
 15 17  1  0  0  0
M  END
> <minimizedAffinity>
-1.78664

> <CNNscore>
0.5010591745

> <CNNaffinity>
6.5164308548

> <CNN_VS>
3.2651174068

> <CNNaffinity_variance>
0.5676004291

$$$$
[H]OC(=O)C([H])([H])Oc1c([H])c([H])c(N([H])C(=O)c2c([H])c([H])c([H])c(OC([H])([H])C([H])([H])[H])c2[H])c(F)c1[H]


 26 27  0  0  0  0  0  0  0  0999 V2000
   10.2492   45.8022  129.5370 C   0  0  0  0  0  0  0  0  0  0  0  0
   10.0697   45.8596  128.2959 O   0  0  0  0  0  0  0  0  0  0  0  0
    9.4068   46.4375  130.4453 N   0  0  0  0  0  0  0  0  0  0  0  0
    9.6555   46.3308  131.4907 H   0  0  0  0  0  0  0  0  0  0  0  0
    8.2525   47.2234  130.1931 C   0  0  0  0  0  0  0  0  0  0  0  0
    7.1523   46.8058  129.4860 C   0  0  0  0  0  0  0  0  0  0  0  0
    6.0310   47.6119  129.2580 C   0  0  0  0  0  0  0  0  0  0  0  0
    6.0330   48.8911  129.7709 C   0  0  0  0  0  0  0  0  0  0  0  0
    7.1060   49.3645  130.4871 C   0  0  0  0  0  0  0  0  0  0  0  0
    8.1800   48.5345  130.6823 C   0  0  0  0  0  0  0  0  0  0  0  0
    9.2511   48.9913  131.3910 F   0  0  0  0  0  0  0  0  0  0  0  0
    4.9476   49.7184  129.5690 O   0  0  0  0  0  0  0  0  0  0  0  0
    5.0703   50.8428  128.7365 C   0  0  0  0  0  0  0  0  0  0  0  0
    6.3310   51.5737  129.0261 C   0  0  0  0  0  0  0  0  0  0  0  0
    7.1435   51.9832  127.9857 O   0  0  0  0  0  0  0  0  0  0  0  0
    6.6552   51.8175  130.2113 O   0  0  0  0  0  0  0  0  0  0  0  0
    7.4973   52.9162  127.8760 H   0  0  0  0  0  0  0  0  0  0  0  0
   12.5749   43.7472  131.7225 C   0  0  0  0  0  0  0  0  0  0  0  0
   13.6050   43.5937  130.8325 C   0  0  0  0  0  0  0  0  0  0  0  0
   13.5590   44.1410  129.5514 C   0  0  0  0  0  0  0  0  0  0  0  0
   12.4603   44.8496  129.1695 C   0  0  0  0  0  0  0  0  0  0  0  0
   11.4079   45.0245  130.0353 C   0  0  0  0  0  0  0  0  0  0  0  0
   11.4664   44.4800  131.2933 C   0  0  0  0  0  0  0  0  0  0  0  0
   12.6128   43.2120  132.9824 O   0  0  0  0  0  0  0  0  0  0  0  0
   11.0769   44.3608  134.4976 C   0  0  0  0  0  0  0  0  0  0  0  0
   12.4524   43.8650  134.1955 C   0  0  0  0  0  0  0  0  0  0  0  0
 25 26  1  0  0  0
 26 24  1  0  0  0
 24 18  1  0  0  0
 18 19  2  0  0  0
 19 20  1  0  0  0
 20 21  2  0  0  0
 21 22  1  0  0  0
 22 23  2  0  0  0
 22  1  1  0  0  0
  1  2  2  0  0  0
  1  3  1  0  0  0
  3  5  1  0  0  0
  5  6  2  0  0  0
  6  7  1  0  0  0
  7  8  2  0  0  0
  8 12  1  0  0  0
 12 13  1  0  0  0
 13 14  1  0  0  0
 14 15  1  0  0  0
 14 16  2  0  0  0
  8  9  1  0  0  0
  9 10  2  0  0  0
 10 11  1  0  0  0
 23 18  1  0  0  0
 10  5  1  0  0  0
  3  4  1  0  0  0
 15 17  1  0  0  0
M  END
> <minimizedAffinity>
-0.69320

> <CNNscore>
0.4811242223

> <CNNaffinity>
6.4332780838

> <CNN_VS>
3.0952060223

> <CNNaffinity_variance>
0.5468219519

$$$$
[H]OC(=O)C([H])([H])Oc1c([H])c([H])c(N([H])C(=O)c2c([H])c([H])c([H])c(OC([H])([H])C([H])([H])[H])c2[H])c(F)c1[H]


 26 27  0  0  0  0  0  0  0  0999 V2000
   10.6439   45.9431  131.0011 C   0  0  0  0  0  0  0  0  0  0  0  0
   10.6037   45.5000  129.8272 O   0  0  0  0  0  0  0  0  0  0  0  0
   10.0026   47.1194  131.3796 N   0  0  0  0  0  0  0  0  0  0  0  0
   10.1069   47.4153  132.4129 H   0  0  0  0  0  0  0  0  0  0  0  0
    9.2233   48.0048  130.5906 C   0  0  0  0  0  0  0  0  0  0  0  0
    8.4380   47.6319  129.5281 C   0  0  0  0  0  0  0  0  0  0  0  0
    7.6826   48.5364  128.7730 C   0  0  0  0  0  0  0  0  0  0  0  0
    7.7308   49.8705  129.1153 C   0  0  0  0  0  0  0  0  0  0  0  0
    8.4991   50.3033  130.1693 C   0  0  0  0  0  0  0  0  0  0  0  0
    9.2205   49.3765  130.8771 C   0  0  0  0  0  0  0  0  0  0  0  0
    9.9868   49.7920  131.9250 F   0  0  0  0  0  0  0  0  0  0  0  0
    7.0013   50.7952  128.3968 O   0  0  0  0  0  0  0  0  0  0  0  0
    5.9914   51.5360  129.0325 C   0  0  0  0  0  0  0  0  0  0  0  0
    5.1108   50.6439  129.8301 C   0  0  0  0  0  0  0  0  0  0  0  0
    4.2271   49.7967  129.1885 O   0  0  0  0  0  0  0  0  0  0  0  0
    5.1705   50.6610  131.0812 O   0  0  0  0  0  0  0  0  0  0  0  0
    4.1473   48.8136  129.3753 H   0  0  0  0  0  0  0  0  0  0  0  0
   12.9034   44.9910  133.8989 C   0  0  0  0  0  0  0  0  0  0  0  0
   12.7630   43.6302  133.8256 C   0  0  0  0  0  0  0  0  0  0  0  0
   11.9589   43.0238  132.8620 C   0  0  0  0  0  0  0  0  0  0  0  0
   11.2920   43.8027  131.9656 C   0  0  0  0  0  0  0  0  0  0  0  0
   11.4088   45.1710  132.0083 C   0  0  0  0  0  0  0  0  0  0  0  0
   12.2036   45.7547  132.9624 C   0  0  0  0  0  0  0  0  0  0  0  0
   13.6911   45.5939  134.8430 O   0  0  0  0  0  0  0  0  0  0  0  0
   14.7984   47.3172  136.1765 C   0  0  0  0  0  0  0  0  0  0  0  0
   13.9492   46.9469  135.0058 C   0  0  0  0  0  0  0  0  0  0  0  0
 25 26  1  0  0  0
 26 24  1  0  0  0
 24 18  1  0  0  0
 18 19  2  0  0  0
 19 20  1  0  0  0
 20 21  2  0  0  0
 21 22  1  0  0  0
 22 23  2  0  0  0
 22  1  1  0  0  0
  1  2  2  0  0  0
  1  3  1  0  0  0
  3  5  1  0  0  0
  5  6  2  0  0  0
  6  7  1  0  0  0
  7  8  2  0  0  0
  8 12  1  0  0  0
 12 13  1  0  0  0
 13 14  1  0  0  0
 14 15  1  0  0  0
 14 16  2  0  0  0
  8  9  1  0  0  0
  9 10  2  0  0  0
 10 11  1  0  0  0
 23 18  1  0  0  0
 10  5  1  0  0  0
  3  4  1  0  0  0
 15 17  1  0  0  0
M  END
> <minimizedAffinity>
3.50021

> <CNNscore>
0.4778787792

> <CNNaffinity>
6.3663363457

> <CNN_VS>
3.0423369408

> <CNNaffinity_variance>
1.1354365349

$$$$
[H]OC(=O)C([H])([H])Oc1c([H])c([H])c(N([H])C(=O)c2c([H])c([H])c([H])c(OC([H])([H])C([H])([H])[H])c2[H])c(F)c1[H]


 26 27  0  0  0  0  0  0  0  0999 V2000
    9.7357   47.8664  132.2604 C   0  0  0  0  0  0  0  0  0  0  0  0
   10.3934   48.9018  132.5270 O   0  0  0  0  0  0  0  0  0  0  0  0
    8.6899   47.8598  131.3413 N   0  0  0  0  0  0  0  0  0  0  0  0
    8.1847   46.9172  131.1915 H   0  0  0  0  0  0  0  0  0  0  0  0
    8.1783   48.9308  130.5637 C   0  0  0  0  0  0  0  0  0  0  0  0
    7.9487   50.2028  131.0263 C   0  0  0  0  0  0  0  0  0  0  0  0
    7.4422   51.2341  130.2270 C   0  0  0  0  0  0  0  0  0  0  0  0
    7.1598   50.9565  128.9070 C   0  0  0  0  0  0  0  0  0  0  0  0
    7.3691   49.7016  128.3874 C   0  0  0  0  0  0  0  0  0  0  0  0
    7.8670   48.7263  129.2128 C   0  0  0  0  0  0  0  0  0  0  0  0
    8.0795   47.4771  128.7105 F   0  0  0  0  0  0  0  0  0  0  0  0
    6.6591   51.9446  128.0846 O   0  0  0  0  0  0  0  0  0  0  0  0
    7.1315   53.2617  128.2060 C   0  0  0  0  0  0  0  0  0  0  0  0
    7.1856   53.9232  126.8767 C   0  0  0  0  0  0  0  0  0  0  0  0
    6.1015   54.6528  126.4267 O   0  0  0  0  0  0  0  0  0  0  0  0
    8.2125   53.8188  126.1668 O   0  0  0  0  0  0  0  0  0  0  0  0
    6.1572   55.5897  126.0705 H   0  0  0  0  0  0  0  0  0  0  0  0
   11.0403   44.3878  133.0391 C   0  0  0  0  0  0  0  0  0  0  0  0
   10.7375   44.3530  134.3746 C   0  0  0  0  0  0  0  0  0  0  0  0
   10.1227   45.4255  135.0185 C   0  0  0  0  0  0  0  0  0  0  0  0
    9.8122   46.5420  134.3029 C   0  0  0  0  0  0  0  0  0  0  0  0
   10.1005   46.6129  132.9613 C   0  0  0  0  0  0  0  0  0  0  0  0
   10.7062   45.5498  132.3404 C   0  0  0  0  0  0  0  0  0  0  0  0
   11.6447   43.3383  132.3998 O   0  0  0  0  0  0  0  0  0  0  0  0
   10.2094   42.6803  130.5340 C   0  0  0  0  0  0  0  0  0  0  0  0
   11.0446   42.2953  131.7101 C   0  0  0  0  0  0  0  0  0  0  0  0
 25 26  1  0  0  0
 26 24  1  0  0  0
 24 18  1  0  0  0
 18 19  2  0  0  0
 19 20  1  0  0  0
 20 21  2  0  0  0
 21 22  1  0  0  0
 22 23  2  0  0  0
 22  1  1  0  0  0
  1  2  2  0  0  0
  1  3  1  0  0  0
  3  5  1  0  0  0
  5  6  2  0  0  0
  6  7  1  0  0  0
  7  8  2  0  0  0
  8 12  1  0  0  0
 12 13  1  0  0  0
 13 14  1  0  0  0
 14 15  1  0  0  0
 14 16  2  0  0  0
  8  9  1  0  0  0
  9 10  2  0  0  0
 10 11  1  0  0  0
 23 18  1  0  0  0
 10  5  1  0  0  0
  3  4  1  0  0  0
 15 17  1  0  0  0
M  END
> <minimizedAffinity>
-3.81236

> <CNNscore>
0.4423980117

> <CNNaffinity>
6.2445998192

> <CNN_VS>
2.7625985146

> <CNNaffinity_variance>
0.1592301130

$$$$
[H]OC(=O)C([H])([H])Oc1c([H])c([H])c(N([H])C(=O)c2c([H])c([H])c([H])c(OC([H])([H])C([H])([H])[H])c2[H])c(F)c1[H]


 26 27  0  0  0  0  0  0  0  0999 V2000
   10.1568   45.4311  129.9483 C   0  0  0  0  0  0  0  0  0  0  0  0
   10.4533   45.5281  128.7324 O   0  0  0  0  0  0  0  0  0  0  0  0
    9.4265   46.4072  130.6209 N   0  0  0  0  0  0  0  0  0  0  0  0
    9.2322   46.2290  131.6681 H   0  0  0  0  0  0  0  0  0  0  0  0
    8.8961   47.6259  130.1239 C   0  0  0  0  0  0  0  0  0  0  0  0
    9.2967   48.8791  130.5159 C   0  0  0  0  0  0  0  0  0  0  0  0
    8.7483   50.0597  130.0016 C   0  0  0  0  0  0  0  0  0  0  0  0
    7.7547   49.9570  129.0521 C   0  0  0  0  0  0  0  0  0  0  0  0
    7.3126   48.7294  128.6206 C   0  0  0  0  0  0  0  0  0  0  0  0
    7.8828   47.6033  129.1562 C   0  0  0  0  0  0  0  0  0  0  0  0
    7.4539   46.3792  128.7371 F   0  0  0  0  0  0  0  0  0  0  0  0
    7.1873   51.0961  128.5193 O   0  0  0  0  0  0  0  0  0  0  0  0
    6.1006   51.7054  129.1677 C   0  0  0  0  0  0  0  0  0  0  0  0
    5.2919   50.6943  129.8965 C   0  0  0  0  0  0  0  0  0  0  0  0
    4.3504   49.9457  129.2157 O   0  0  0  0  0  0  0  0  0  0  0  0
    5.4643   50.5221  131.1253 O   0  0  0  0  0  0  0  0  0  0  0  0
    4.2837   48.9449  129.2575 H   0  0  0  0  0  0  0  0  0  0  0  0
   11.8609   43.1090  132.4207 C   0  0  0  0  0  0  0  0  0  0  0  0
   11.3654   41.9198  131.9551 C   0  0  0  0  0  0  0  0  0  0  0  0
   10.4999   41.8593  130.8642 C   0  0  0  0  0  0  0  0  0  0  0  0
   10.1337   43.0134  130.2404 C   0  0  0  0  0  0  0  0  0  0  0  0
   10.6109   44.2248  130.6793 C   0  0  0  0  0  0  0  0  0  0  0  0
   11.4620   44.2696  131.7544 C   0  0  0  0  0  0  0  0  0  0  0  0
   12.7111   43.1763  133.4921 O   0  0  0  0  0  0  0  0  0  0  0  0
   11.1971   44.3398  135.0180 C   0  0  0  0  0  0  0  0  0  0  0  0
   12.5868   43.9494  134.6369 C   0  0  0  0  0  0  0  0  0  0  0  0
 25 26  1  0  0  0
 26 24  1  0  0  0
 24 18  1  0  0  0
 18 19  2  0  0  0
 19 20  1  0  0  0
 20 21  2  0  0  0
 21 22  1  0  0  0
 22 23  2  0  0  0
 22  1  1  0  0  0
  1  2  2  0  0  0
  1  3  1  0  0  0
  3  5  1  0  0  0
  5  6  2  0  0  0
  6  7  1  0  0  0
  7  8  2  0  0  0
  8 12  1  0  0  0
 12 13  1  0  0  0
 13 14  1  0  0  0
 14 15  1  0  0  0
 14 16  2  0  0  0
  8  9  1  0  0  0
  9 10  2  0  0  0
 10 11  1  0  0  0
 23 18  1  0  0  0
 10  5  1  0  0  0
  3  4  1  0  0  0
 15 17  1  0  0  0
M  END
> <minimizedAffinity>
-1.68702

> <CNNscore>
0.4287478626

> <CNNaffinity>
6.4299988747

> <CNN_VS>
2.7568483353

> <CNNaffinity_variance>
0.5451553464

$$$$
[H]OC(=O)C([H])([H])Oc1c([H])c([H])c(N([H])C(=O)c2c([H])c([H])c([H])c(OC([H])([H])C([H])([H])[H])c2[H])c(F)c1[H]


 26 27  0  0  0  0  0  0  0  0999 V2000
    9.0128   47.7912  131.1221 C   0  0  0  0  0  0  0  0  0  0  0  0
   10.2190   47.9344  131.4390 O   0  0  0  0  0  0  0  0  0  0  0  0
    8.3825   46.5498  131.1172 N   0  0  0  0  0  0  0  0  0  0  0  0
    7.3441   46.5366  130.8211 H   0  0  0  0  0  0  0  0  0  0  0  0
    8.9164   45.2764  131.4443 C   0  0  0  0  0  0  0  0  0  0  0  0
    8.8408   44.6825  132.6797 C   0  0  0  0  0  0  0  0  0  0  0  0
    9.3808   43.4228  132.9638 C   0  0  0  0  0  0  0  0  0  0  0  0
   10.0215   42.7448  131.9493 C   0  0  0  0  0  0  0  0  0  0  0  0
   10.1284   43.2889  130.6919 C   0  0  0  0  0  0  0  0  0  0  0  0
    9.5821   44.5261  130.4658 C   0  0  0  0  0  0  0  0  0  0  0  0
    9.6808   45.0776  129.2231 F   0  0  0  0  0  0  0  0  0  0  0  0
   10.5679   41.5005  132.1871 O   0  0  0  0  0  0  0  0  0  0  0  0
   11.9500   41.3727  132.4015 C   0  0  0  0  0  0  0  0  0  0  0  0
   12.5745   42.7061  132.6003 C   0  0  0  0  0  0  0  0  0  0  0  0
   12.6191   43.2635  133.8642 O   0  0  0  0  0  0  0  0  0  0  0  0
   13.0591   43.3224  131.6232 O   0  0  0  0  0  0  0  0  0  0  0  0
   13.4487   43.6333  134.2917 H   0  0  0  0  0  0  0  0  0  0  0  0
    6.2961   50.1222  129.8593 C   0  0  0  0  0  0  0  0  0  0  0  0
    6.9297   51.3146  130.0906 C   0  0  0  0  0  0  0  0  0  0  0  0
    8.2090   51.3740  130.6408 C   0  0  0  0  0  0  0  0  0  0  0  0
    8.8511   50.2158  130.9589 C   0  0  0  0  0  0  0  0  0  0  0  0
    8.2471   49.0011  130.7408 C   0  0  0  0  0  0  0  0  0  0  0  0
    6.9874   48.9574  130.1989 C   0  0  0  0  0  0  0  0  0  0  0  0
    5.0392   50.0560  129.3196 O   0  0  0  0  0  0  0  0  0  0  0  0
    5.0346   47.6377  128.9642 C   0  0  0  0  0  0  0  0  0  0  0  0
    4.2840   48.9257  129.0442 C   0  0  0  0  0  0  0  0  0  0  0  0
 25 26  1  0  0  0
 26 24  1  0  0  0
 24 18  1  0  0  0
 18 19  2  0  0  0
 19 20  1  0  0  0
 20 21  2  0  0  0
 21 22  1  0  0  0
 22 23  2  0  0  0
 22  1  1  0  0  0
  1  2  2  0  0  0
  1  3  1  0  0  0
  3  5  1  0  0  0
  5  6  2  0  0  0
  6  7  1  0  0  0
  7  8  2  0  0  0
  8 12  1  0  0  0
 12 13  1  0  0  0
 13 14  1  0  0  0
 14 15  1  0  0  0
 14 16  2  0  0  0
  8  9  1  0  0  0
  9 10  2  0  0  0
 10 11  1  0  0  0
 23 18  1  0  0  0
 10  5  1  0  0  0
  3  4  1  0  0  0
 15 17  1  0  0  0
M  END
> <minimizedAffinity>
0.54761

> <CNNscore>
0.4262588620

> <CNNaffinity>
6.6300454140

> <CNN_VS>
2.8261156082

> <CNNaffinity_variance>
1.2253228426

$$$$
[H]OC(=O)c1c([H])c([H])c(N([H])C(=O)c2c([H])c([H])c(OC([H])(C([H])([H])[H])C([H])([H])[H])c(C(=O)N([H])c3c([H])c([H])c([H])c(C(F)(F)F)c3[H])c2[H])c([H])c1[H]


 38 40  0  0  0  0  0  0  0  0999 V2000
    9.9688   41.6701  129.4348 C   0  0  0  0  0  0  0  0  0  0  0  0
    9.5509   42.2347  128.2302 C   0  0  0  0  0  0  0  0  0  0  0  0
    9.0852   43.5704  128.2545 C   0  0  0  0  0  0  0  0  0  0  0  0
    9.0705   44.2721  129.5144 C   0  0  0  0  0  0  0  0  0  0  0  0
    9.5247   43.5593  130.5474 C   0  0  0  0  0  0  0  0  0  0  0  0
   10.0244   42.1626  130.5669 C   0  0  0  0  0  0  0  0  0  0  0  0
   10.8452   42.1016  131.8736 C   0  0  0  0  0  0  0  0  0  0  0  0
   11.2678   40.9770  132.2417 O   0  0  0  0  0  0  0  0  0  0  0  0
   10.9397   43.3531  132.3163 N   0  0  0  0  0  0  0  0  0  0  0  0
    9.5736   43.5705  132.0420 H   0  0  0  0  0  0  0  0  0  0  0  0
   11.0989   44.6607  132.8575 C   0  0  0  0  0  0  0  0  0  0  0  0
   12.2103   45.3311  132.8021 C   0  0  0  0  0  0  0  0  0  0  0  0
   12.1633   46.5987  133.4170 C   0  0  0  0  0  0  0  0  0  0  0  0
   11.0791   47.1417  134.0368 C   0  0  0  0  0  0  0  0  0  0  0  0
    9.8766   46.2125  134.0253 C   0  0  0  0  0  0  0  0  0  0  0  0
    9.9163   45.0309  133.4621 C   0  0  0  0  0  0  0  0  0  0  0  0
    8.7321   46.9023  134.5723 C   0  0  0  0  0  0  0  0  0  0  0  0
    8.4453   48.1099  133.8759 F   0  0  0  0  0  0  0  0  0  0  0  0
    7.6200   46.1260  134.5078 F   0  0  0  0  0  0  0  0  0  0  0  0
    8.9715   47.1676  135.8956 F   0  0  0  0  0  0  0  0  0  0  0  0
    8.5372   45.5876  129.6695 C   0  0  0  0  0  0  0  0  0  0  0  0
    7.3750   45.6718  130.1579 O   0  0  0  0  0  0  0  0  0  0  0  0
    9.2573   46.7337  129.2822 N   0  0  0  0  0  0  0  0  0  0  0  0
   10.1978   46.5981  128.8806 H   0  0  0  0  0  0  0  0  0  0  0  0
    8.6079   47.9488  129.3939 C   0  0  0  0  0  0  0  0  0  0  0  0
    8.9335   48.9646  130.2135 C   0  0  0  0  0  0  0  0  0  0  0  0
    8.4529   50.2438  130.3106 C   0  0  0  0  0  0  0  0  0  0  0  0
    7.4305   50.5647  129.3879 C   0  0  0  0  0  0  0  0  0  0  0  0
    7.0604   49.5406  128.5302 C   0  0  0  0  0  0  0  0  0  0  0  0
    7.5092   48.2393  128.4221 C   0  0  0  0  0  0  0  0  0  0  0  0
    6.7388   51.8550  129.3845 C   0  0  0  0  0  0  0  0  0  0  0  0
    6.8046   52.6248  128.1901 O   0  0  0  0  0  0  0  0  0  0  0  0
    6.0786   52.3630  130.3130 O   0  0  0  0  0  0  0  0  0  0  0  0
    7.5711   52.6581  127.6137 H   0  0  0  0  0  0  0  0  0  0  0  0
   10.4050   40.3028  129.3581 O   0  0  0  0  0  0  0  0  0  0  0  0
    8.6231   38.7083  129.3804 C   0  0  0  0  0  0  0  0  0  0  0  0
    9.8794   39.2913  130.0720 C   0  0  0  0  0  0  0  0  0  0  0  0
   10.8901   38.1594  130.2333 C   0  0  0  0  0  0  0  0  0  0  0  0
 36 37  1  0  0  0
 37 38  1  0  0  0
 37 35  1  0  0  0
 35  1  1  0  0  0
  1  2  2  0  0  0
  2  3  1  0  0  0
  3  4  2  0  0  0
  4  5  1  0  0  0
  5  6  2  0  0  0
  6  7  1  0  0  0
  7  8  2  0  0  0
  7  9  1  0  0  0
  9 11  1  0  0  0
 11 12  2  0  0  0
 12 13  1  0  0  0
 13 14  2  0  0  0
 14 15  1  0  0  0
 15 16  2  0  0  0
 15 17  1  0  0  0
 17 18  1  0  0  0
 17 19  1  0  0  0
 17 20  1  0  0  0
  4 21  1  0  0  0
 21 22  2  0  0  0
 21 23  1  0  0  0
 23 25  1  0  0  0
 25 26  2  0  0  0
 26 27  1  0  0  0
 27 28  2  0  0  0
 28 29  1  0  0  0
 29 30  2  0  0  0
 28 31  1  0  0  0
 31 32  1  0  0  0
 31 33  2  0  0  0
  6  1  1  0  0  0
 16 11  1  0  0  0
 30 25  1  0  0  0
  9 10  1  0  0  0
 23 24  1  0  0  0
 32 34  1  0  0  0
M  END
> <minimizedAffinity>
10.00364

> <CNNscore>
0.5218087435

> <CNNaffinity>
7.6988191605

> <CNN_VS>
4.0173110962

> <CNNaffinity_variance>
0.9059658051

$$$$
[H]OC(=O)c1c([H])c([H])c(N([H])C(=O)c2c([H])c([H])c(OC([H])(C([H])([H])[H])C([H])([H])[H])c(C(=O)N([H])c3c([H])c([H])c([H])c(C(F)(F)F)c3[H])c2[H])c([H])c1[H]


 38 40  0  0  0  0  0  0  0  0999 V2000
    9.4080   43.7030  130.9944 C   0  0  0  0  0  0  0  0  0  0  0  0
    8.4102   43.5793  130.0283 C   0  0  0  0  0  0  0  0  0  0  0  0
    7.9254   44.7640  129.4255 C   0  0  0  0  0  0  0  0  0  0  0  0
    8.4874   46.0265  129.8379 C   0  0  0  0  0  0  0  0  0  0  0  0
    9.4421   45.9279  130.7655 C   0  0  0  0  0  0  0  0  0  0  0  0
    9.9821   44.7112  131.4200 C   0  0  0  0  0  0  0  0  0  0  0  0
   11.3443   45.1849  131.9725 C   0  0  0  0  0  0  0  0  0  0  0  0
   12.3723   44.8921  131.3121 O   0  0  0  0  0  0  0  0  0  0  0  0
   11.0816   45.8655  133.0857 N   0  0  0  0  0  0  0  0  0  0  0  0
   10.1641   44.8753  133.4940 H   0  0  0  0  0  0  0  0  0  0  0  0
   10.8921   46.6163  134.2809 C   0  0  0  0  0  0  0  0  0  0  0  0
    9.8288   46.5309  135.0223 C   0  0  0  0  0  0  0  0  0  0  0  0
    9.8301   47.3753  136.1511 C   0  0  0  0  0  0  0  0  0  0  0  0
   10.8272   48.2349  136.4995 C   0  0  0  0  0  0  0  0  0  0  0  0
   11.9807   48.2192  135.5103 C   0  0  0  0  0  0  0  0  0  0  0  0
   11.9821   47.4425  134.4559 C   0  0  0  0  0  0  0  0  0  0  0  0
   13.0541   49.0446  136.0118 C   0  0  0  0  0  0  0  0  0  0  0  0
   13.1471   50.2870  135.3240 F   0  0  0  0  0  0  0  0  0  0  0  0
   12.8773   49.3250  137.3285 F   0  0  0  0  0  0  0  0  0  0  0  0
   14.2312   48.3522  135.8939 F   0  0  0  0  0  0  0  0  0  0  0  0
    8.0103   47.2860  129.3633 C   0  0  0  0  0  0  0  0  0  0  0  0
    7.6293   47.3282  128.1594 O   0  0  0  0  0  0  0  0  0  0  0  0
    7.9818   48.4292  130.1845 N   0  0  0  0  0  0  0  0  0  0  0  0
    8.3157   48.3323  131.1558 H   0  0  0  0  0  0  0  0  0  0  0  0
    7.5859   49.6146  129.5941 C   0  0  0  0  0  0  0  0  0  0  0  0
    6.8870   50.6086  130.1713 C   0  0  0  0  0  0  0  0  0  0  0  0
    6.5618   51.8649  129.7320 C   0  0  0  0  0  0  0  0  0  0  0  0
    7.0423   52.1845  128.4410 C   0  0  0  0  0  0  0  0  0  0  0  0
    7.7614   51.1820  127.8089 C   0  0  0  0  0  0  0  0  0  0  0  0
    8.0866   49.9031  128.2151 C   0  0  0  0  0  0  0  0  0  0  0  0
    6.7350   53.4481  127.7685 C   0  0  0  0  0  0  0  0  0  0  0  0
    5.3790   53.6785  127.4059 O   0  0  0  0  0  0  0  0  0  0  0  0
    7.5293   54.3662  127.4818 O   0  0  0  0  0  0  0  0  0  0  0  0
    4.7772   52.9915  127.1114 H   0  0  0  0  0  0  0  0  0  0  0  0
    9.8434   42.4717  131.5943 O   0  0  0  0  0  0  0  0  0  0  0  0
   10.6630   42.8387  133.8106 C   0  0  0  0  0  0  0  0  0  0  0  0
    9.6438   42.1357  132.8813 C   0  0  0  0  0  0  0  0  0  0  0  0
    8.2438   42.5384  133.3358 C   0  0  0  0  0  0  0  0  0  0  0  0
 36 37  1  0  0  0
 37 38  1  0  0  0
 37 35  1  0  0  0
 35  1  1  0  0  0
  1  2  2  0  0  0
  2  3  1  0  0  0
  3  4  2  0  0  0
  4  5  1  0  0  0
  5  6  2  0  0  0
  6  7  1  0  0  0
  7  8  2  0  0  0
  7  9  1  0  0  0
  9 11  1  0  0  0
 11 12  2  0  0  0
 12 13  1  0  0  0
 13 14  2  0  0  0
 14 15  1  0  0  0
 15 16  2  0  0  0
 15 17  1  0  0  0
 17 18  1  0  0  0
 17 19  1  0  0  0
 17 20  1  0  0  0
  4 21  1  0  0  0
 21 22  2  0  0  0
 21 23  1  0  0  0
 23 25  1  0  0  0
 25 26  2  0  0  0
 26 27  1  0  0  0
 27 28  2  0  0  0
 28 29  1  0  0  0
 29 30  2  0  0  0
 28 31  1  0  0  0
 31 32  1  0  0  0
 31 33  2  0  0  0
  6  1  1  0  0  0
 16 11  1  0  0  0
 30 25  1  0  0  0
  9 10  1  0  0  0
 23 24  1  0  0  0
 32 34  1  0  0  0
M  END
> <minimizedAffinity>
16.08473

> <CNNscore>
0.5134161115

> <CNNaffinity>
7.4392738342

> <CNN_VS>
3.8194429874

> <CNNaffinity_variance>
2.1367874146

$$$$
[H]OC(=O)c1c([H])c([H])c(N([H])C(=O)c2c([H])c([H])c(OC([H])(C([H])([H])[H])C([H])([H])[H])c(C(=O)N([H])c3c([H])c([H])c([H])c(C(F)(F)F)c3[H])c2[H])c([H])c1[H]


 38 40  0  0  0  0  0  0  0  0999 V2000
    8.2162   49.5046  129.3196 C   0  0  0  0  0  0  0  0  0  0  0  0
    7.6634   48.5922  128.4216 C   0  0  0  0  0  0  0  0  0  0  0  0
    7.9885   47.2252  128.5865 C   0  0  0  0  0  0  0  0  0  0  0  0
    8.8656   46.8512  129.6685 C   0  0  0  0  0  0  0  0  0  0  0  0
    9.2753   47.8727  130.4237 C   0  0  0  0  0  0  0  0  0  0  0  0
    8.9577   49.3156  130.2900 C   0  0  0  0  0  0  0  0  0  0  0  0
    9.2840   49.8783  131.6907 C   0  0  0  0  0  0  0  0  0  0  0  0
    9.3146   51.1275  131.8218 O   0  0  0  0  0  0  0  0  0  0  0  0
    9.4390   48.8262  132.4910 N   0  0  0  0  0  0  0  0  0  0  0  0
   10.2102   48.1717  131.5083 H   0  0  0  0  0  0  0  0  0  0  0  0
    9.6125   47.7607  133.4198 C   0  0  0  0  0  0  0  0  0  0  0  0
    8.7456   47.4610  134.3398 C   0  0  0  0  0  0  0  0  0  0  0  0
    9.1186   46.3848  135.1704 C   0  0  0  0  0  0  0  0  0  0  0  0
   10.2747   45.6714  135.0759 C   0  0  0  0  0  0  0  0  0  0  0  0
   11.1774   46.1719  133.9605 C   0  0  0  0  0  0  0  0  0  0  0  0
   10.8398   47.1758  133.1904 C   0  0  0  0  0  0  0  0  0  0  0  0
   12.3126   45.2892  133.8295 C   0  0  0  0  0  0  0  0  0  0  0  0
   12.6698   45.0664  132.4701 F   0  0  0  0  0  0  0  0  0  0  0  0
   13.4031   45.8035  134.4538 F   0  0  0  0  0  0  0  0  0  0  0  0
   12.0143   44.0982  134.4390 F   0  0  0  0  0  0  0  0  0  0  0  0
    9.3308   45.5165  129.8712 C   0  0  0  0  0  0  0  0  0  0  0  0
   10.0161   45.0096  128.9385 O   0  0  0  0  0  0  0  0  0  0  0  0
    9.0283   44.7916  131.0395 N   0  0  0  0  0  0  0  0  0  0  0  0
    8.4560   45.2576  131.7602 H   0  0  0  0  0  0  0  0  0  0  0  0
    9.4538   43.4774  131.0889 C   0  0  0  0  0  0  0  0  0  0  0  0
    9.3630   42.5632  130.1063 C   0  0  0  0  0  0  0  0  0  0  0  0
    9.8650   41.2931  129.9975 C   0  0  0  0  0  0  0  0  0  0  0  0
   10.6152   40.8544  131.1131 C   0  0  0  0  0  0  0  0  0  0  0  0
   10.7254   41.7661  132.1515 C   0  0  0  0  0  0  0  0  0  0  0  0
   10.2152   43.0405  132.2994 C   0  0  0  0  0  0  0  0  0  0  0  0
   11.1683   39.5029  131.2176 C   0  0  0  0  0  0  0  0  0  0  0  0
   12.0880   39.2569  132.2744 O   0  0  0  0  0  0  0  0  0  0  0  0
   10.9171   38.5232  130.4875 O   0  0  0  0  0  0  0  0  0  0  0  0
   12.7234   39.9006  132.5948 H   0  0  0  0  0  0  0  0  0  0  0  0
    7.8762   50.8819  129.0892 O   0  0  0  0  0  0  0  0  0  0  0  0
    5.7581   51.2211  130.1460 C   0  0  0  0  0  0  0  0  0  0  0  0
    6.6290   51.3355  128.8712 C   0  0  0  0  0  0  0  0  0  0  0  0
    6.6514   52.8027  128.4523 C   0  0  0  0  0  0  0  0  0  0  0  0
 36 37  1  0  0  0
 37 38  1  0  0  0
 37 35  1  0  0  0
 35  1  1  0  0  0
  1  2  2  0  0  0
  2  3  1  0  0  0
  3  4  2  0  0  0
  4  5  1  0  0  0
  5  6  2  0  0  0
  6  7  1  0  0  0
  7  8  2  0  0  0
  7  9  1  0  0  0
  9 11  1  0  0  0
 11 12  2  0  0  0
 12 13  1  0  0  0
 13 14  2  0  0  0
 14 15  1  0  0  0
 15 16  2  0  0  0
 15 17  1  0  0  0
 17 18  1  0  0  0
 17 19  1  0  0  0
 17 20  1  0  0  0
  4 21  1  0  0  0
 21 22  2  0  0  0
 21 23  1  0  0  0
 23 25  1  0  0  0
 25 26  2  0  0  0
 26 27  1  0  0  0
 27 28  2  0  0  0
 28 29  1  0  0  0
 29 30  2  0  0  0
 28 31  1  0  0  0
 31 32  1  0  0  0
 31 33  2  0  0  0
  6  1  1  0  0  0
 16 11  1  0  0  0
 30 25  1  0  0  0
  9 10  1  0  0  0
 23 24  1  0  0  0
 32 34  1  0  0  0
M  END
> <minimizedAffinity>
6.54837

> <CNNscore>
0.4825857580

> <CNNaffinity>
7.6674985886

> <CNN_VS>
3.7002255917

> <CNNaffinity_variance>
0.8455684781

$$$$
[H]OC(=O)c1c([H])c([H])c(N([H])C(=O)c2c([H])c([H])c(OC([H])(C([H])([H])[H])C([H])([H])[H])c(C(=O)N([H])c3c([H])c([H])c([H])c(C(F)(F)F)c3[H])c2[H])c([H])c1[H]


 38 40  0  0  0  0  0  0  0  0999 V2000
   10.6564   42.4755  130.2187 C   0  0  0  0  0  0  0  0  0  0  0  0
   10.1881   42.5883  128.9101 C   0  0  0  0  0  0  0  0  0  0  0  0
    9.7981   43.8708  128.4575 C   0  0  0  0  0  0  0  0  0  0  0  0
    9.9078   44.9850  129.3666 C   0  0  0  0  0  0  0  0  0  0  0  0
   10.3926   44.6690  130.5694 C   0  0  0  0  0  0  0  0  0  0  0  0
   10.8160   43.3435  131.0837 C   0  0  0  0  0  0  0  0  0  0  0  0
   11.7200   43.7045  132.2827 C   0  0  0  0  0  0  0  0  0  0  0  0
   12.8218   43.1084  132.3792 O   0  0  0  0  0  0  0  0  0  0  0  0
   11.0800   44.6524  132.9632 N   0  0  0  0  0  0  0  0  0  0  0  0
    9.8680   43.9412  132.8459 H   0  0  0  0  0  0  0  0  0  0  0  0
   10.4717   45.6746  133.7463 C   0  0  0  0  0  0  0  0  0  0  0  0
    9.9191   45.4613  134.9025 C   0  0  0  0  0  0  0  0  0  0  0  0
    9.3547   46.6045  135.5040 C   0  0  0  0  0  0  0  0  0  0  0  0
    9.3512   47.8601  134.9768 C   0  0  0  0  0  0  0  0  0  0  0  0
   10.0201   47.9205  133.6136 C   0  0  0  0  0  0  0  0  0  0  0  0
   10.5397   46.8607  133.0465 C   0  0  0  0  0  0  0  0  0  0  0  0
   10.1028   49.2954  133.1803 C   0  0  0  0  0  0  0  0  0  0  0  0
   10.9876   50.0642  133.9875 F   0  0  0  0  0  0  0  0  0  0  0  0
   10.5513   49.3760  131.9013 F   0  0  0  0  0  0  0  0  0  0  0  0
    8.8454   49.8405  133.2096 F   0  0  0  0  0  0  0  0  0  0  0  0
    9.4585   46.3019  129.0459 C   0  0  0  0  0  0  0  0  0  0  0  0
   10.1514   46.9467  128.2089 O   0  0  0  0  0  0  0  0  0  0  0  0
    8.3143   46.8645  129.6427 N   0  0  0  0  0  0  0  0  0  0  0  0
    7.7967   46.2909  130.3262 H   0  0  0  0  0  0  0  0  0  0  0  0
    8.0245   48.1784  129.3257 C   0  0  0  0  0  0  0  0  0  0  0  0
    7.3219   48.6156  128.2651 C   0  0  0  0  0  0  0  0  0  0  0  0
    6.8647   49.8628  127.9296 C   0  0  0  0  0  0  0  0  0  0  0  0
    7.1829   50.8807  128.8582 C   0  0  0  0  0  0  0  0  0  0  0  0
    7.9141   50.4712  129.9623 C   0  0  0  0  0  0  0  0  0  0  0  0
    8.4061   49.2308  130.3169 C   0  0  0  0  0  0  0  0  0  0  0  0
    6.8481   52.2891  128.6398 C   0  0  0  0  0  0  0  0  0  0  0  0
    6.5574   53.0740  129.7899 O   0  0  0  0  0  0  0  0  0  0  0  0
    6.7980   52.8958  127.5510 O   0  0  0  0  0  0  0  0  0  0  0  0
    6.1019   52.7417  130.5664 H   0  0  0  0  0  0  0  0  0  0  0  0
   11.0116   41.1468  130.6356 O   0  0  0  0  0  0  0  0  0  0  0  0
   11.6369   39.7995  132.5096 C   0  0  0  0  0  0  0  0  0  0  0  0
   10.5200   40.5301  131.7251 C   0  0  0  0  0  0  0  0  0  0  0  0
    9.8688   41.5363  132.6698 C   0  0  0  0  0  0  0  0  0  0  0  0
 36 37  1  0  0  0
 37 38  1  0  0  0
 37 35  1  0  0  0
 35  1  1  0  0  0
  1  2  2  0  0  0
  2  3  1  0  0  0
  3  4  2  0  0  0
  4  5  1  0  0  0
  5  6  2  0  0  0
  6  7  1  0  0  0
  7  8  2  0  0  0
  7  9  1  0  0  0
  9 11  1  0  0  0
 11 12  2  0  0  0
 12 13  1  0  0  0
 13 14  2  0  0  0
 14 15  1  0  0  0
 15 16  2  0  0  0
 15 17  1  0  0  0
 17 18  1  0  0  0
 17 19  1  0  0  0
 17 20  1  0  0  0
  4 21  1  0  0  0
 21 22  2  0  0  0
 21 23  1  0  0  0
 23 25  1  0  0  0
 25 26  2  0  0  0
 26 27  1  0  0  0
 27 28  2  0  0  0
 28 29  1  0  0  0
 29 30  2  0  0  0
 28 31  1  0  0  0
 31 32  1  0  0  0
 31 33  2  0  0  0
  6  1  1  0  0  0
 16 11  1  0  0  0
 30 25  1  0  0  0
  9 10  1  0  0  0
 23 24  1  0  0  0
 32 34  1  0  0  0
M  END
> <minimizedAffinity>
6.86941

> <CNNscore>
0.4802231193

> <CNNaffinity>
7.5525069237

> <CNN_VS>
3.6268885136

> <CNNaffinity_variance>
0.9059507251

$$$$
[H]OC(=O)c1c([H])c([H])c(N([H])C(=O)c2c([H])c([H])c(OC([H])(C([H])([H])[H])C([H])([H])[H])c(C(=O)N([H])c3c([H])c([H])c([H])c(C(F)(F)F)c3[H])c2[H])c([H])c1[H]


 38 40  0  0  0  0  0  0  0  0999 V2000
   10.0097   42.9255  129.8155 C   0  0  0  0  0  0  0  0  0  0  0  0
    9.3861   42.9119  131.0627 C   0  0  0  0  0  0  0  0  0  0  0  0
    9.3326   44.1263  131.7865 C   0  0  0  0  0  0  0  0  0  0  0  0
    9.9193   45.3053  131.1984 C   0  0  0  0  0  0  0  0  0  0  0  0
   10.4541   45.1108  129.9911 C   0  0  0  0  0  0  0  0  0  0  0  0
   10.5290   43.8605  129.1964 C   0  0  0  0  0  0  0  0  0  0  0  0
   10.7745   44.3717  127.7598 C   0  0  0  0  0  0  0  0  0  0  0  0
   10.3407   45.5142  127.4681 O   0  0  0  0  0  0  0  0  0  0  0  0
   11.4631   43.4194  127.1351 N   0  0  0  0  0  0  0  0  0  0  0  0
   10.6180   42.4294  127.6779 H   0  0  0  0  0  0  0  0  0  0  0  0
   12.2081   42.4589  126.3930 C   0  0  0  0  0  0  0  0  0  0  0  0
   13.3145   42.7330  125.7700 C   0  0  0  0  0  0  0  0  0  0  0  0
   13.8834   41.6454  125.0766 C   0  0  0  0  0  0  0  0  0  0  0  0
   13.3726   40.3843  125.0198 C   0  0  0  0  0  0  0  0  0  0  0  0
   12.0671   40.2505  125.7860 C   0  0  0  0  0  0  0  0  0  0  0  0
   11.5299   41.2588  126.4259 C   0  0  0  0  0  0  0  0  0  0  0  0
   11.6581   38.8657  125.7987 C   0  0  0  0  0  0  0  0  0  0  0  0
   11.1982   38.4264  124.5256 F   0  0  0  0  0  0  0  0  0  0  0  0
   12.6889   38.0575  126.1558 F   0  0  0  0  0  0  0  0  0  0  0  0
   10.6700   38.7092  126.7358 F   0  0  0  0  0  0  0  0  0  0  0  0
   10.0023   46.5584  131.8780 C   0  0  0  0  0  0  0  0  0  0  0  0
   10.4200   46.5276  133.0701 O   0  0  0  0  0  0  0  0  0  0  0  0
    9.6217   47.7661  131.2628 N   0  0  0  0  0  0  0  0  0  0  0  0
    9.2794   47.7238  130.2906 H   0  0  0  0  0  0  0  0  0  0  0  0
    9.6579   48.9057  132.0443 C   0  0  0  0  0  0  0  0  0  0  0  0
   10.3058   49.0615  133.2129 C   0  0  0  0  0  0  0  0  0  0  0  0
   10.5199   50.1674  133.9928 C   0  0  0  0  0  0  0  0  0  0  0  0
    9.9644   51.3657  133.4878 C   0  0  0  0  0  0  0  0  0  0  0  0
    9.2809   51.2451  132.2879 C   0  0  0  0  0  0  0  0  0  0  0  0
    9.0305   50.1453  131.4916 C   0  0  0  0  0  0  0  0  0  0  0  0
   10.0214   52.6361  134.2133 C   0  0  0  0  0  0  0  0  0  0  0  0
    8.7824   53.2424  134.5607 O   0  0  0  0  0  0  0  0  0  0  0  0
   11.0412   53.2541  134.5795 O   0  0  0  0  0  0  0  0  0  0  0  0
    7.9952   53.2085  134.0130 H   0  0  0  0  0  0  0  0  0  0  0  0
   10.0611   41.6600  129.1364 O   0  0  0  0  0  0  0  0  0  0  0  0
   10.6914   40.4634  131.1084 C   0  0  0  0  0  0  0  0  0  0  0  0
    9.9643   40.4628  129.7417 C   0  0  0  0  0  0  0  0  0  0  0  0
    8.5037   40.0981  129.9911 C   0  0  0  0  0  0  0  0  0  0  0  0
 36 37  1  0  0  0
 37 38  1  0  0  0
 37 35  1  0  0  0
 35  1  1  0  0  0
  1  2  2  0  0  0
  2  3  1  0  0  0
  3  4  2  0  0  0
  4  5  1  0  0  0
  5  6  2  0  0  0
  6  7  1  0  0  0
  7  8  2  0  0  0
  7  9  1  0  0  0
  9 11  1  0  0  0
 11 12  2  0  0  0
 12 13  1  0  0  0
 13 14  2  0  0  0
 14 15  1  0  0  0
 15 16  2  0  0  0
 15 17  1  0  0  0
 17 18  1  0  0  0
 17 19  1  0  0  0
 17 20  1  0  0  0
  4 21  1  0  0  0
 21 22  2  0  0  0
 21 23  1  0  0  0
 23 25  1  0  0  0
 25 26  2  0  0  0
 26 27  1  0  0  0
 27 28  2  0  0  0
 28 29  1  0  0  0
 29 30  2  0  0  0
 28 31  1  0  0  0
 31 32  1  0  0  0
 31 33  2  0  0  0
  6  1  1  0  0  0
 16 11  1  0  0  0
 30 25  1  0  0  0
  9 10  1  0  0  0
 23 24  1  0  0  0
 32 34  1  0  0  0
M  END
> <minimizedAffinity>
35.83075

> <CNNscore>
0.4220371246

> <CNNaffinity>
6.6388459206

> <CNN_VS>
2.8018393517

> <CNNaffinity_variance>
1.4924423695

$$$$
[H]OC(=O)c1c([H])c([H])c(N([H])C(=O)c2c([H])c([H])c(OC([H])(C([H])([H])[H])C([H])([H])[H])c(C(=O)N([H])c3c([H])c([H])c([H])c(C(F)(F)F)c3[H])c2[H])c([H])c1[H]


 38 40  0  0  0  0  0  0  0  0999 V2000
    8.5711   44.2605  131.6855 C   0  0  0  0  0  0  0  0  0  0  0  0
    7.9048   44.5363  132.8790 C   0  0  0  0  0  0  0  0  0  0  0  0
    8.1986   45.7568  133.5315 C   0  0  0  0  0  0  0  0  0  0  0  0
    9.1625   46.6450  132.9298 C   0  0  0  0  0  0  0  0  0  0  0  0
    9.6763   46.2031  131.7799 C   0  0  0  0  0  0  0  0  0  0  0  0
    9.3954   44.9365  131.0605 C   0  0  0  0  0  0  0  0  0  0  0  0
    9.8729   45.2361  129.6226 C   0  0  0  0  0  0  0  0  0  0  0  0
    9.0368   45.7277  128.8238 O   0  0  0  0  0  0  0  0  0  0  0  0
   11.1606   44.9029  129.5777 N   0  0  0  0  0  0  0  0  0  0  0  0
   10.8928   43.7087  130.2784 H   0  0  0  0  0  0  0  0  0  0  0  0
   12.5415   44.5821  129.4422 C   0  0  0  0  0  0  0  0  0  0  0  0
   13.4192   44.7734  130.3807 C   0  0  0  0  0  0  0  0  0  0  0  0
   14.7366   44.4086  130.0365 C   0  0  0  0  0  0  0  0  0  0  0  0
   15.1314   43.8923  128.8398 C   0  0  0  0  0  0  0  0  0  0  0  0
   13.9805   43.7569  127.8567 C   0  0  0  0  0  0  0  0  0  0  0  0
   12.7559   44.1009  128.1680 C   0  0  0  0  0  0  0  0  0  0  0  0
   14.4422   43.0796  126.6679 C   0  0  0  0  0  0  0  0  0  0  0  0
   15.5580   43.7326  126.0729 F   0  0  0  0  0  0  0  0  0  0  0  0
   14.8231   41.8073  126.9501 F   0  0  0  0  0  0  0  0  0  0  0  0
   13.4060   43.0092  125.7733 F   0  0  0  0  0  0  0  0  0  0  0  0
    9.6003   47.8560  133.5469 C   0  0  0  0  0  0  0  0  0  0  0  0
    9.2133   48.0575  134.7326 O   0  0  0  0  0  0  0  0  0  0  0  0
   10.4057   48.7895  132.8672 N   0  0  0  0  0  0  0  0  0  0  0  0
   10.6803   48.5718  131.8970 H   0  0  0  0  0  0  0  0  0  0  0  0
   10.6941   49.9677  133.5300 C   0  0  0  0  0  0  0  0  0  0  0  0
   11.7887   50.2313  134.2662 C   0  0  0  0  0  0  0  0  0  0  0  0
   12.2368   51.3890  134.8458 C   0  0  0  0  0  0  0  0  0  0  0  0
   11.4072   52.5153  134.6393 C   0  0  0  0  0  0  0  0  0  0  0  0
   10.2636   52.2826  133.8912 C   0  0  0  0  0  0  0  0  0  0  0  0
    9.7754   51.1274  133.3136 C   0  0  0  0  0  0  0  0  0  0  0  0
   11.6767   53.8224  135.2411 C   0  0  0  0  0  0  0  0  0  0  0  0
   11.0489   54.1070  136.4854 O   0  0  0  0  0  0  0  0  0  0  0  0
   12.4113   54.7256  134.7931 O   0  0  0  0  0  0  0  0  0  0  0  0
   10.1694   53.8070  136.7248 H   0  0  0  0  0  0  0  0  0  0  0  0
    8.2565   42.9956  131.0801 O   0  0  0  0  0  0  0  0  0  0  0  0
    9.5872   42.1745  129.2708 C   0  0  0  0  0  0  0  0  0  0  0  0
    9.1633   42.0569  130.7551 C   0  0  0  0  0  0  0  0  0  0  0  0
   10.4190   42.1970  131.6109 C   0  0  0  0  0  0  0  0  0  0  0  0
 36 37  1  0  0  0
 37 38  1  0  0  0
 37 35  1  0  0  0
 35  1  1  0  0  0
  1  2  2  0  0  0
  2  3  1  0  0  0
  3  4  2  0  0  0
  4  5  1  0  0  0
  5  6  2  0  0  0
  6  7  1  0  0  0
  7  8  2  0  0  0
  7  9  1  0  0  0
  9 11  1  0  0  0
 11 12  2  0  0  0
 12 13  1  0  0  0
 13 14  2  0  0  0
 14 15  1  0  0  0
 15 16  2  0  0  0
 15 17  1  0  0  0
 17 18  1  0  0  0
 17 19  1  0  0  0
 17 20  1  0  0  0
  4 21  1  0  0  0
 21 22  2  0  0  0
 21 23  1  0  0  0
 23 25  1  0  0  0
 25 26  2  0  0  0
 26 27  1  0  0  0
 27 28  2  0  0  0
 28 29  1  0  0  0
 29 30  2  0  0  0
 28 31  1  0  0  0
 31 32  1  0  0  0
 31 33  2  0  0  0
  6  1  1  0  0  0
 16 11  1  0  0  0
 30 25  1  0  0  0
  9 10  1  0  0  0
 23 24  1  0  0  0
 32 34  1  0  0  0
M  END
> <minimizedAffinity>
35.83553

> <CNNscore>
0.3964550793

> <CNNaffinity>
6.6397233009

> <CNN_VS>
2.6323521137

> <CNNaffinity_variance>
1.0600206852

$$$$
[H]OC(=O)c1c([H])c([H])c(N([H])C(=O)c2c([H])c([H])c(OC([H])(C([H])([H])[H])C([H])([H])[H])c(C(=O)N([H])c3c([H])c([H])c([H])c(C(F)(F)F)c3[H])c2[H])c([H])c1[H]


 38 40  0  0  0  0  0  0  0  0999 V2000
   10.7308   42.7765  130.6628 C   0  0  0  0  0  0  0  0  0  0  0  0
   11.2135   43.4495  129.5409 C   0  0  0  0  0  0  0  0  0  0  0  0
   10.6027   44.6779  129.1953 C   0  0  0  0  0  0  0  0  0  0  0  0
    9.5231   45.1659  130.0177 C   0  0  0  0  0  0  0  0  0  0  0  0
    9.2212   44.3804  131.0537 C   0  0  0  0  0  0  0  0  0  0  0  0
    9.8355   43.0909  131.4545 C   0  0  0  0  0  0  0  0  0  0  0  0
    9.4309   42.9555  132.9388 C   0  0  0  0  0  0  0  0  0  0  0  0
    9.5238   41.8181  133.4644 O   0  0  0  0  0  0  0  0  0  0  0  0
    9.0805   44.1735  133.3449 N   0  0  0  0  0  0  0  0  0  0  0  0
    8.3472   44.3763  132.1575 H   0  0  0  0  0  0  0  0  0  0  0  0
    8.6974   45.4419  133.8669 C   0  0  0  0  0  0  0  0  0  0  0  0
    7.8041   46.2064  133.3143 C   0  0  0  0  0  0  0  0  0  0  0  0
    7.5870   47.4310  133.9778 C   0  0  0  0  0  0  0  0  0  0  0  0
    8.2230   47.8462  135.1082 C   0  0  0  0  0  0  0  0  0  0  0  0
    9.2475   46.8385  135.6025 C   0  0  0  0  0  0  0  0  0  0  0  0
    9.4589   45.7025  134.9864 C   0  0  0  0  0  0  0  0  0  0  0  0
    9.7796   47.2782  136.8708 C   0  0  0  0  0  0  0  0  0  0  0  0
   10.9953   48.0034  136.7247 F   0  0  0  0  0  0  0  0  0  0  0  0
    8.9003   48.0904  137.5117 F   0  0  0  0  0  0  0  0  0  0  0  0
    9.9793   46.1801  137.6666 F   0  0  0  0  0  0  0  0  0  0  0  0
    8.7775   46.3441  129.7095 C   0  0  0  0  0  0  0  0  0  0  0  0
    7.9743   46.2658  128.7373 O   0  0  0  0  0  0  0  0  0  0  0  0
    8.9391   47.5392  130.4359 N   0  0  0  0  0  0  0  0  0  0  0  0
    9.6179   47.5421  131.2126 H   0  0  0  0  0  0  0  0  0  0  0  0
    8.2329   48.6418  129.9927 C   0  0  0  0  0  0  0  0  0  0  0  0
    7.8782   49.7171  130.7189 C   0  0  0  0  0  0  0  0  0  0  0  0
    7.3064   50.9088  130.3583 C   0  0  0  0  0  0  0  0  0  0  0  0
    7.0366   51.0430  128.9768 C   0  0  0  0  0  0  0  0  0  0  0  0
    7.3808   49.9515  128.1947 C   0  0  0  0  0  0  0  0  0  0  0  0
    7.9367   48.7329  128.5299 C   0  0  0  0  0  0  0  0  0  0  0  0
    6.3598   52.2103  128.4086 C   0  0  0  0  0  0  0  0  0  0  0  0
    7.1267   53.3995  128.2633 O   0  0  0  0  0  0  0  0  0  0  0  0
    5.1770   52.2851  128.0194 O   0  0  0  0  0  0  0  0  0  0  0  0
    7.8077   53.6785  128.8791 H   0  0  0  0  0  0  0  0  0  0  0  0
   11.3675   41.5209  130.9517 O   0  0  0  0  0  0  0  0  0  0  0  0
   11.0536   39.2722  131.7020 C   0  0  0  0  0  0  0  0  0  0  0  0
   10.8961   40.3195  130.5729 C   0  0  0  0  0  0  0  0  0  0  0  0
    9.4139   40.4054  130.2204 C   0  0  0  0  0  0  0  0  0  0  0  0
 36 37  1  0  0  0
 37 38  1  0  0  0
 37 35  1  0  0  0
 35  1  1  0  0  0
  1  2  2  0  0  0
  2  3  1  0  0  0
  3  4  2  0  0  0
  4  5  1  0  0  0
  5  6  2  0  0  0
  6  7  1  0  0  0
  7  8  2  0  0  0
  7  9  1  0  0  0
  9 11  1  0  0  0
 11 12  2  0  0  0
 12 13  1  0  0  0
 13 14  2  0  0  0
 14 15  1  0  0  0
 15 16  2  0  0  0
 15 17  1  0  0  0
 17 18  1  0  0  0
 17 19  1  0  0  0
 17 20  1  0  0  0
  4 21  1  0  0  0
 21 22  2  0  0  0
 21 23  1  0  0  0
 23 25  1  0  0  0
 25 26  2  0  0  0
 26 27  1  0  0  0
 27 28  2  0  0  0
 28 29  1  0  0  0
 29 30  2  0  0  0
 28 31  1  0  0  0
 31 32  1  0  0  0
 31 33  2  0  0  0
  6  1  1  0  0  0
 16 11  1  0  0  0
 30 25  1  0  0  0
  9 10  1  0  0  0
 23 24  1  0  0  0
 32 34  1  0  0  0
M  END
> <minimizedAffinity>
19.19756

> <CNNscore>
0.3866111338

> <CNNaffinity>
7.2578125000

> <CNN_VS>
2.8059511185

> <CNNaffinity_variance>
1.8351646662

$$$$
[H]OC(=O)c1c([H])c([H])c(N([H])C(=O)c2c([H])c([H])c(OC([H])(C([H])([H])[H])C([H])([H])[H])c(C(=O)N([H])c3c([H])c([H])c([H])c(C(F)(F)F)c3[H])c2[H])c([H])c1[H]


 38 40  0  0  0  0  0  0  0  0999 V2000
   10.5715   42.3292  131.0544 C   0  0  0  0  0  0  0  0  0  0  0  0
   10.3077   42.3581  129.6855 C   0  0  0  0  0  0  0  0  0  0  0  0
    9.9296   43.5953  129.1127 C   0  0  0  0  0  0  0  0  0  0  0  0
    9.8408   44.7524  129.9690 C   0  0  0  0  0  0  0  0  0  0  0  0
   10.1474   44.5172  131.2466 C   0  0  0  0  0  0  0  0  0  0  0  0
   10.5510   43.2417  131.8876 C   0  0  0  0  0  0  0  0  0  0  0  0
   11.2381   43.7056  133.1906 C   0  0  0  0  0  0  0  0  0  0  0  0
   11.9456   42.8677  133.8039 O   0  0  0  0  0  0  0  0  0  0  0  0
   10.9150   44.9868  133.3497 N   0  0  0  0  0  0  0  0  0  0  0  0
    9.5751   44.7080  133.0096 H   0  0  0  0  0  0  0  0  0  0  0  0
   10.6281   46.3602  133.5938 C   0  0  0  0  0  0  0  0  0  0  0  0
   11.2900   47.3395  133.0547 C   0  0  0  0  0  0  0  0  0  0  0  0
   10.8602   48.6242  133.4445 C   0  0  0  0  0  0  0  0  0  0  0  0
    9.8433   48.8937  134.3092 C   0  0  0  0  0  0  0  0  0  0  0  0
    9.1967   47.6326  134.8578 C   0  0  0  0  0  0  0  0  0  0  0  0
    9.5963   46.4364  134.5052 C   0  0  0  0  0  0  0  0  0  0  0  0
    8.0462   47.9905  135.6535 C   0  0  0  0  0  0  0  0  0  0  0  0
    7.0326   46.9922  135.6176 F   0  0  0  0  0  0  0  0  0  0  0  0
    8.3910   48.1682  136.9547 F   0  0  0  0  0  0  0  0  0  0  0  0
    7.5492   49.1825  135.1941 F   0  0  0  0  0  0  0  0  0  0  0  0
    9.3819   46.0263  129.5154 C   0  0  0  0  0  0  0  0  0  0  0  0
   10.0116   46.5419  128.5490 O   0  0  0  0  0  0  0  0  0  0  0  0
    8.2967   46.6864  130.1224 N   0  0  0  0  0  0  0  0  0  0  0  0
    7.8300   46.2176  130.9139 H   0  0  0  0  0  0  0  0  0  0  0  0
    7.9971   47.9543  129.6603 C   0  0  0  0  0  0  0  0  0  0  0  0
    6.9655   48.3012  128.8697 C   0  0  0  0  0  0  0  0  0  0  0  0
    6.5005   49.5256  128.4675 C   0  0  0  0  0  0  0  0  0  0  0  0
    7.2285   50.6299  128.9677 C   0  0  0  0  0  0  0  0  0  0  0  0
    8.3054   50.3133  129.7810 C   0  0  0  0  0  0  0  0  0  0  0  0
    8.8102   49.0936  130.1860 C   0  0  0  0  0  0  0  0  0  0  0  0
    6.9330   52.0134  128.5910 C   0  0  0  0  0  0  0  0  0  0  0  0
    6.5290   52.8978  129.6293 O   0  0  0  0  0  0  0  0  0  0  0  0
    7.0057   52.5208  127.4537 O   0  0  0  0  0  0  0  0  0  0  0  0
    5.9899   52.6361  130.3787 H   0  0  0  0  0  0  0  0  0  0  0  0
   10.9231   41.0424  131.5891 O   0  0  0  0  0  0  0  0  0  0  0  0
   11.4802   38.7219  131.7420 C   0  0  0  0  0  0  0  0  0  0  0  0
   11.1029   39.9315  130.8525 C   0  0  0  0  0  0  0  0  0  0  0  0
    9.8286   39.5723  130.0936 C   0  0  0  0  0  0  0  0  0  0  0  0
 36 37  1  0  0  0
 37 38  1  0  0  0
 37 35  1  0  0  0
 35  1  1  0  0  0
  1  2  2  0  0  0
  2  3  1  0  0  0
  3  4  2  0  0  0
  4  5  1  0  0  0
  5  6  2  0  0  0
  6  7  1  0  0  0
  7  8  2  0  0  0
  7  9  1  0  0  0
  9 11  1  0  0  0
 11 12  2  0  0  0
 12 13  1  0  0  0
 13 14  2  0  0  0
 14 15  1  0  0  0
 15 16  2  0  0  0
 15 17  1  0  0  0
 17 18  1  0  0  0
 17 19  1  0  0  0
 17 20  1  0  0  0
  4 21  1  0  0  0
 21 22  2  0  0  0
 21 23  1  0  0  0
 23 25  1  0  0  0
 25 26  2  0  0  0
 26 27  1  0  0  0
 27 28  2  0  0  0
 28 29  1  0  0  0
 29 30  2  0  0  0
 28 31  1  0  0  0
 31 32  1  0  0  0
 31 33  2  0  0  0
  6  1  1  0  0  0
 16 11  1  0  0  0
 30 25  1  0  0  0
  9 10  1  0  0  0
 23 24  1  0  0  0
 32 34  1  0  0  0
M  END
> <minimizedAffinity>
13.30862

> <CNNscore>
0.3726446629

> <CNNaffinity>
7.3914260864

> <CNN_VS>
2.7543754578

> <CNNaffinity_variance>
1.1622521877

$$$$
[H]OC(=O)c1c([H])c([H])c(N([H])C(=O)c2c([H])c([H])c(OC([H])(C([H])([H])[H])C([H])([H])[H])c(C(=O)N([H])c3c([H])c([H])c([H])c(C(F)(F)F)c3[H])c2[H])c([H])c1[H]


 38 40  0  0  0  0  0  0  0  0999 V2000
    8.2377   49.4537  129.7484 C   0  0  0  0  0  0  0  0  0  0  0  0
    9.2095   50.1413  130.4744 C   0  0  0  0  0  0  0  0  0  0  0  0
    9.8238   49.4679  131.5565 C   0  0  0  0  0  0  0  0  0  0  0  0
    9.4166   48.1150  131.8465 C   0  0  0  0  0  0  0  0  0  0  0  0
    8.4821   47.6327  131.0245 C   0  0  0  0  0  0  0  0  0  0  0  0
    7.8155   48.2996  129.8793 C   0  0  0  0  0  0  0  0  0  0  0  0
    7.2573   47.1155  129.0598 C   0  0  0  0  0  0  0  0  0  0  0  0
    6.2758   47.3409  128.3086 O   0  0  0  0  0  0  0  0  0  0  0  0
    8.0248   46.0664  129.3457 N   0  0  0  0  0  0  0  0  0  0  0  0
    7.9909   46.3946  130.7168 H   0  0  0  0  0  0  0  0  0  0  0  0
    8.7989   44.8954  129.5855 C   0  0  0  0  0  0  0  0  0  0  0  0
    8.3184   43.6903  129.5195 C   0  0  0  0  0  0  0  0  0  0  0  0
    9.2464   42.6707  129.8134 C   0  0  0  0  0  0  0  0  0  0  0  0
   10.5536   42.8576  130.1465 C   0  0  0  0  0  0  0  0  0  0  0  0
   10.9367   44.3274  130.1962 C   0  0  0  0  0  0  0  0  0  0  0  0
   10.0773   45.2793  129.9314 C   0  0  0  0  0  0  0  0  0  0  0  0
   12.3587   44.4453  130.4175 C   0  0  0  0  0  0  0  0  0  0  0  0
   13.0859   44.5757  129.2011 F   0  0  0  0  0  0  0  0  0  0  0  0
   12.6440   45.5343  131.1765 F   0  0  0  0  0  0  0  0  0  0  0  0
   12.7881   43.3408  131.1065 F   0  0  0  0  0  0  0  0  0  0  0  0
    9.9032   47.3763  132.9675 C   0  0  0  0  0  0  0  0  0  0  0  0
   10.6492   48.0001  133.7740 O   0  0  0  0  0  0  0  0  0  0  0  0
    9.5866   46.0179  133.1585 N   0  0  0  0  0  0  0  0  0  0  0  0
    8.9805   45.5621  132.4592 H   0  0  0  0  0  0  0  0  0  0  0  0
   10.1860   45.3795  134.2280 C   0  0  0  0  0  0  0  0  0  0  0  0
    9.8377   45.4776  135.5236 C   0  0  0  0  0  0  0  0  0  0  0  0
   10.2655   44.7978  136.6336 C   0  0  0  0  0  0  0  0  0  0  0  0
   11.2500   43.8141  136.3836 C   0  0  0  0  0  0  0  0  0  0  0  0
   11.6421   43.6878  135.0601 C   0  0  0  0  0  0  0  0  0  0  0  0
   11.2468   44.3697  133.9265 C   0  0  0  0  0  0  0  0  0  0  0  0
   11.8855   43.0366  137.4490 C   0  0  0  0  0  0  0  0  0  0  0  0
   11.9293   43.6230  138.7442 O   0  0  0  0  0  0  0  0  0  0  0  0
   12.3903   41.8994  137.3588 O   0  0  0  0  0  0  0  0  0  0  0  0
   12.0442   44.5619  138.9055 H   0  0  0  0  0  0  0  0  0  0  0  0
    7.6263   50.1938  128.6789 O   0  0  0  0  0  0  0  0  0  0  0  0
    5.9476   50.8755  130.2394 C   0  0  0  0  0  0  0  0  0  0  0  0
    6.5435   50.9800  128.8145 C   0  0  0  0  0  0  0  0  0  0  0  0
    6.9009   52.4424  128.5650 C   0  0  0  0  0  0  0  0  0  0  0  0
 36 37  1  0  0  0
 37 38  1  0  0  0
 37 35  1  0  0  0
 35  1  1  0  0  0
  1  2  2  0  0  0
  2  3  1  0  0  0
  3  4  2  0  0  0
  4  5  1  0  0  0
  5  6  2  0  0  0
  6  7  1  0  0  0
  7  8  2  0  0  0
  7  9  1  0  0  0
  9 11  1  0  0  0
 11 12  2  0  0  0
 12 13  1  0  0  0
 13 14  2  0  0  0
 14 15  1  0  0  0
 15 16  2  0  0  0
 15 17  1  0  0  0
 17 18  1  0  0  0
 17 19  1  0  0  0
 17 20  1  0  0  0
  4 21  1  0  0  0
 21 22  2  0  0  0
 21 23  1  0  0  0
 23 25  1  0  0  0
 25 26  2  0  0  0
 26 27  1  0  0  0
 27 28  2  0  0  0
 28 29  1  0  0  0
 29 30  2  0  0  0
 28 31  1  0  0  0
 31 32  1  0  0  0
 31 33  2  0  0  0
  6  1  1  0  0  0
 16 11  1  0  0  0
 30 25  1  0  0  0
  9 10  1  0  0  0
 23 24  1  0  0  0
 32 34  1  0  0  0
M  END
> <minimizedAffinity>
4.12478

> <CNNscore>
0.2978189290

> <CNNaffinity>
7.5332961082

> <CNN_VS>
2.2435581684

> <CNNaffinity_variance>
0.5148670673

$$$$
[H]OC(=O)c1[se]c(-c2c([H])c([H])c(OC([H])(C([H])([H])[H])C([H])([H])[H])c(C#N)c2[H])nc1C([H])([H])[H]


 22 23  0  0  0  0  0  0  0  0999 V2000
    9.9103   44.3791  132.1351 C   0  0  0  0  0  0  0  0  0  0  0  0
    9.7664   45.5560  132.8254 C   0  0  0  0  0  0  0  0  0  0  0  0
    9.0804   46.6265  132.2897 C   0  0  0  0  0  0  0  0  0  0  0  0
    8.5152   46.5431  131.0349 C   0  0  0  0  0  0  0  0  0  0  0  0
    8.6644   45.3633  130.3533 C   0  0  0  0  0  0  0  0  0  0  0  0
    9.3384   44.2864  130.8583 C   0  0  0  0  0  0  0  0  0  0  0  0
    7.8001   47.6591  130.4767 C   0  0  0  0  0  0  0  0  0  0  0  0
    6.7287   48.0665  129.9913 N   0  0  0  0  0  0  0  0  0  0  0  0
    6.2877   49.1576  129.5352 C   0  0  0  0  0  0  0  0  0  0  0  0
    4.8276   49.2566  128.9980 C   0  0  0  0  0  0  0  0  0  0  0  0
    6.9903   50.3102  129.4595 C   0  0  0  0  0  0  0  0  0  0  0  0
    8.7824   49.5599  130.2905 Se  0  0  0  0  0  0  0  0  0  0  0  0
    6.9089   51.6548  129.0580 C   0  0  0  0  0  0  0  0  0  0  0  0
    7.1053   52.0322  127.7399 O   0  0  0  0  0  0  0  0  0  0  0  0
    6.6602   52.5487  129.8609 O   0  0  0  0  0  0  0  0  0  0  0  0
    8.0677   52.1135  127.3866 H   0  0  0  0  0  0  0  0  0  0  0  0
    9.4641   43.0699  130.0964 C   0  0  0  0  0  0  0  0  0  0  0  0
    9.5804   42.1174  129.4819 N   0  0  0  0  0  0  0  0  0  0  0  0
   10.5687   43.2681  132.5786 O   0  0  0  0  0  0  0  0  0  0  0  0
   12.6926   43.7615  131.6208 C   0  0  0  0  0  0  0  0  0  0  0  0
   11.9255   43.1222  132.7682 C   0  0  0  0  0  0  0  0  0  0  0  0
   12.4364   43.7997  134.0295 C   0  0  0  0  0  0  0  0  0  0  0  0
 20 21  1  0  0  0
 21 22  1  0  0  0
 21 19  1  0  0  0
 19  1  1  0  0  0
  1  2  2  0  0  0
  2  3  1  0  0  0
  3  4  2  0  0  0
  4  5  1  0  0  0
  5  6  2  0  0  0
  6 17  1  0  0  0
 17 18  3  0  0  0
  4  7  1  0  0  0
  7  8  2  0  0  0
  8  9  1  0  0  0
  9 10  1  0  0  0
  9 11  2  0  0  0
 11 12  1  0  0  0
 11 13  1  0  0  0
 13 14  1  0  0  0
 13 15  2  0  0  0
  6  1  1  0  0  0
 12  7  1  0  0  0
 14 16  1  0  0  0
M  END
> <minimizedAffinity>
-3.98597

> <CNNscore>
0.6220480800

> <CNNaffinity>
7.0588774681

> <CNN_VS>
4.3909611702

> <CNNaffinity_variance>
1.0165814161

$$$$
[H]OC(=O)c1[se]c(-c2c([H])c([H])c(OC([H])(C([H])([H])[H])C([H])([H])[H])c(C#N)c2[H])nc1C([H])([H])[H]


 22 23  0  0  0  0  0  0  0  0999 V2000
   10.5387   44.3805  132.4194 C   0  0  0  0  0  0  0  0  0  0  0  0
    9.3504   44.7972  132.9641 C   0  0  0  0  0  0  0  0  0  0  0  0
    8.5892   45.7806  132.3667 C   0  0  0  0  0  0  0  0  0  0  0  0
    9.0046   46.3776  131.1954 C   0  0  0  0  0  0  0  0  0  0  0  0
   10.1930   45.9547  130.6591 C   0  0  0  0  0  0  0  0  0  0  0  0
   10.9680   44.9829  131.2283 C   0  0  0  0  0  0  0  0  0  0  0  0
    8.2110   47.4028  130.5729 C   0  0  0  0  0  0  0  0  0  0  0  0
    7.1984   47.6639  129.8975 N   0  0  0  0  0  0  0  0  0  0  0  0
    6.6527   48.7023  129.4315 C   0  0  0  0  0  0  0  0  0  0  0  0
    5.3370   48.5986  128.6018 C   0  0  0  0  0  0  0  0  0  0  0  0
    7.1185   49.9621  129.5854 C   0  0  0  0  0  0  0  0  0  0  0  0
    8.8217   49.4559  130.7290 Se  0  0  0  0  0  0  0  0  0  0  0  0
    6.8581   51.3062  129.2667 C   0  0  0  0  0  0  0  0  0  0  0  0
    7.0037   51.7878  127.9761 O   0  0  0  0  0  0  0  0  0  0  0  0
    6.4911   52.1071  130.1207 O   0  0  0  0  0  0  0  0  0  0  0  0
    7.9469   52.0187  127.6377 H   0  0  0  0  0  0  0  0  0  0  0  0
   12.2096   44.5775  130.6198 C   0  0  0  0  0  0  0  0  0  0  0  0
   13.2024   44.2723  130.1512 N   0  0  0  0  0  0  0  0  0  0  0  0
   11.3596   43.4183  132.9338 O   0  0  0  0  0  0  0  0  0  0  0  0
   12.9357   44.8509  133.9993 C   0  0  0  0  0  0  0  0  0  0  0  0
   12.1880   43.5266  134.0293 C   0  0  0  0  0  0  0  0  0  0  0  0
   11.4440   43.5068  135.3548 C   0  0  0  0  0  0  0  0  0  0  0  0
 20 21  1  0  0  0
 21 22  1  0  0  0
 21 19  1  0  0  0
 19  1  1  0  0  0
  1  2  2  0  0  0
  2  3  1  0  0  0
  3  4  2  0  0  0
  4  5  1  0  0  0
  5  6  2  0  0  0
  6 17  1  0  0  0
 17 18  3  0  0  0
  4  7  1  0  0  0
  7  8  2  0  0  0
  8  9  1  0  0  0
  9 10  1  0  0  0
  9 11  2  0  0  0
 11 12  1  0  0  0
 11 13  1  0  0  0
 13 14  1  0  0  0
 13 15  2  0  0  0
  6  1  1  0  0  0
 12  7  1  0  0  0
 14 16  1  0  0  0
M  END
> <minimizedAffinity>
-4.39044

> <CNNscore>
0.5416966081

> <CNNaffinity>
6.9438333511

> <CNN_VS>
3.7614510059

> <CNNaffinity_variance>
1.3359968662

$$$$
[H]OC(=O)c1[se]c(-c2c([H])c([H])c(OC([H])(C([H])([H])[H])C([H])([H])[H])c(C#N)c2[H])nc1C([H])([H])[H]


 22 23  0  0  0  0  0  0  0  0999 V2000
    7.1060   47.9338  129.2227 C   0  0  0  0  0  0  0  0  0  0  0  0
    7.4761   46.6136  129.1736 C   0  0  0  0  0  0  0  0  0  0  0  0
    8.4328   46.1011  130.0253 C   0  0  0  0  0  0  0  0  0  0  0  0
    9.0492   46.9079  130.9580 C   0  0  0  0  0  0  0  0  0  0  0  0
    8.6727   48.2253  130.9993 C   0  0  0  0  0  0  0  0  0  0  0  0
    7.7283   48.7609  130.1686 C   0  0  0  0  0  0  0  0  0  0  0  0
   10.0464   46.3735  131.8458 C   0  0  0  0  0  0  0  0  0  0  0  0
   10.9280   46.6257  132.6877 N   0  0  0  0  0  0  0  0  0  0  0  0
   11.7383   45.9606  133.3908 C   0  0  0  0  0  0  0  0  0  0  0  0
   12.7207   46.6842  134.3610 C   0  0  0  0  0  0  0  0  0  0  0  0
   11.8478   44.6131  133.3869 C   0  0  0  0  0  0  0  0  0  0  0  0
   10.3400   44.2486  131.9521 Se  0  0  0  0  0  0  0  0  0  0  0  0
   12.5512   43.5384  133.9581 C   0  0  0  0  0  0  0  0  0  0  0  0
   13.2436   42.6271  133.1779 O   0  0  0  0  0  0  0  0  0  0  0  0
   12.5796   43.3651  135.1725 O   0  0  0  0  0  0  0  0  0  0  0  0
   12.7189   41.8753  132.7121 H   0  0  0  0  0  0  0  0  0  0  0  0
    7.3715   50.1541  130.2567 C   0  0  0  0  0  0  0  0  0  0  0  0
    7.0789   51.2542  130.3063 N   0  0  0  0  0  0  0  0  0  0  0  0
    6.1730   48.5323  128.4254 O   0  0  0  0  0  0  0  0  0  0  0  0
    4.3891   47.3454  129.4652 C   0  0  0  0  0  0  0  0  0  0  0  0
    4.8044   48.5132  128.5834 C   0  0  0  0  0  0  0  0  0  0  0  0
    4.2569   49.7562  129.2661 C   0  0  0  0  0  0  0  0  0  0  0  0
 20 21  1  0  0  0
 21 22  1  0  0  0
 21 19  1  0  0  0
 19  1  1  0  0  0
  1  2  2  0  0  0
  2  3  1  0  0  0
  3  4  2  0  0  0
  4  5  1  0  0  0
  5  6  2  0  0  0
  6 17  1  0  0  0
 17 18  3  0  0  0
  4  7  1  0  0  0
  7  8  2  0  0  0
  8  9  1  0  0  0
  9 10  1  0  0  0
  9 11  2  0  0  0
 11 12  1  0  0  0
 11 13  1  0  0  0
 13 14  1  0  0  0
 13 15  2  0  0  0
  6  1  1  0  0  0
 12  7  1  0  0  0
 14 16  1  0  0  0
M  END
> <minimizedAffinity>
1.14097

> <CNNscore>
0.4617737830

> <CNNaffinity>
6.7371187210

> <CNN_VS>
3.1110248566

> <CNNaffinity_variance>
1.8754457235

$$$$
[H]OC(=O)c1[se]c(-c2c([H])c([H])c(OC([H])(C([H])([H])[H])C([H])([H])[H])c(C#N)c2[H])nc1C([H])([H])[H]


 22 23  0  0  0  0  0  0  0  0999 V2000
    9.2417   43.9772  130.8811 C   0  0  0  0  0  0  0  0  0  0  0  0
    8.0535   44.4593  130.3932 C   0  0  0  0  0  0  0  0  0  0  0  0
    7.8123   45.8139  130.2923 C   0  0  0  0  0  0  0  0  0  0  0  0
    8.7666   46.7293  130.6823 C   0  0  0  0  0  0  0  0  0  0  0  0
    9.9503   46.2380  131.1684 C   0  0  0  0  0  0  0  0  0  0  0  0
   10.2174   44.9019  131.2798 C   0  0  0  0  0  0  0  0  0  0  0  0
    8.5150   48.1414  130.5771 C   0  0  0  0  0  0  0  0  0  0  0  0
    8.6772   49.2648  131.0882 N   0  0  0  0  0  0  0  0  0  0  0  0
    8.3502   50.4518  130.8104 C   0  0  0  0  0  0  0  0  0  0  0  0
    8.7640   51.6255  131.7493 C   0  0  0  0  0  0  0  0  0  0  0  0
    7.6385   50.8291  129.7246 C   0  0  0  0  0  0  0  0  0  0  0  0
    7.3964   48.8961  128.9062 Se  0  0  0  0  0  0  0  0  0  0  0  0
    7.0906   51.9453  129.0689 C   0  0  0  0  0  0  0  0  0  0  0  0
    6.8165   51.9277  127.7113 O   0  0  0  0  0  0  0  0  0  0  0  0
    6.8332   52.9809  129.6745 O   0  0  0  0  0  0  0  0  0  0  0  0
    7.5894   52.0726  127.0485 H   0  0  0  0  0  0  0  0  0  0  0  0
   11.4805   44.4417  131.7984 C   0  0  0  0  0  0  0  0  0  0  0  0
   12.4832   44.0986  132.2169 N   0  0  0  0  0  0  0  0  0  0  0  0
    9.5732   42.6597  131.0189 O   0  0  0  0  0  0  0  0  0  0  0  0
    9.0543   40.6400  129.8686 C   0  0  0  0  0  0  0  0  0  0  0  0
   10.0190   41.8041  130.0353 C   0  0  0  0  0  0  0  0  0  0  0  0
   10.1151   42.4552  128.6650 C   0  0  0  0  0  0  0  0  0  0  0  0
 20 21  1  0  0  0
 21 22  1  0  0  0
 21 19  1  0  0  0
 19  1  1  0  0  0
  1  2  2  0  0  0
  2  3  1  0  0  0
  3  4  2  0  0  0
  4  5  1  0  0  0
  5  6  2  0  0  0
  6 17  1  0  0  0
 17 18  3  0  0  0
  4  7  1  0  0  0
  7  8  2  0  0  0
  8  9  1  0  0  0
  9 10  1  0  0  0
  9 11  2  0  0  0
 11 12  1  0  0  0
 11 13  1  0  0  0
 13 14  1  0  0  0
 13 15  2  0  0  0
  6  1  1  0  0  0
 12  7  1  0  0  0
 14 16  1  0  0  0
M  END
> <minimizedAffinity>
4.48200

> <CNNscore>
0.4602120817

> <CNNaffinity>
6.6444444656

> <CNN_VS>
3.0578536987

> <CNNaffinity_variance>
2.1170859337

$$$$
[H]OC(=O)c1[se]c(-c2c([H])c([H])c(OC([H])(C([H])([H])[H])C([H])([H])[H])c(C#N)c2[H])nc1C([H])([H])[H]


 22 23  0  0  0  0  0  0  0  0999 V2000
    9.5501   43.2793  131.0475 C   0  0  0  0  0  0  0  0  0  0  0  0
    8.3971   44.0098  130.9091 C   0  0  0  0  0  0  0  0  0  0  0  0
    8.2852   45.2846  131.4246 C   0  0  0  0  0  0  0  0  0  0  0  0
    9.3379   45.8655  132.0992 C   0  0  0  0  0  0  0  0  0  0  0  0
   10.4855   45.1278  132.2324 C   0  0  0  0  0  0  0  0  0  0  0  0
   10.6253   43.8631  131.7325 C   0  0  0  0  0  0  0  0  0  0  0  0
    9.2211   47.1944  132.6366 C   0  0  0  0  0  0  0  0  0  0  0  0
    8.9012   47.8928  133.6162 N   0  0  0  0  0  0  0  0  0  0  0  0
    8.8753   49.1242  133.8920 C   0  0  0  0  0  0  0  0  0  0  0  0
    8.3849   49.6104  135.2896 C   0  0  0  0  0  0  0  0  0  0  0  0
    9.2478   50.1175  133.0538 C   0  0  0  0  0  0  0  0  0  0  0  0
    9.7750   48.8790  131.4249 Se  0  0  0  0  0  0  0  0  0  0  0  0
    9.3740   51.5134  132.9471 C   0  0  0  0  0  0  0  0  0  0  0  0
    9.2962   52.1581  131.7236 O   0  0  0  0  0  0  0  0  0  0  0  0
    9.5584   52.2169  133.9353 O   0  0  0  0  0  0  0  0  0  0  0  0
   10.1230   52.1604  131.1121 H   0  0  0  0  0  0  0  0  0  0  0  0
   11.8561   43.1334  131.9023 C   0  0  0  0  0  0  0  0  0  0  0  0
   12.8356   42.5712  132.0529 N   0  0  0  0  0  0  0  0  0  0  0  0
    9.7568   42.0152  130.5745 O   0  0  0  0  0  0  0  0  0  0  0  0
    9.6590   40.3867  128.8395 C   0  0  0  0  0  0  0  0  0  0  0  0
   10.3102   41.6570  129.3647 C   0  0  0  0  0  0  0  0  0  0  0  0
   10.1109   42.6991  128.2760 C   0  0  0  0  0  0  0  0  0  0  0  0
 20 21  1  0  0  0
 21 22  1  0  0  0
 21 19  1  0  0  0
 19  1  1  0  0  0
  1  2  2  0  0  0
  2  3  1  0  0  0
  3  4  2  0  0  0
  4  5  1  0  0  0
  5  6  2  0  0  0
  6 17  1  0  0  0
 17 18  3  0  0  0
  4  7  1  0  0  0
  7  8  2  0  0  0
  8  9  1  0  0  0
  9 10  1  0  0  0
  9 11  2  0  0  0
 11 12  1  0  0  0
 11 13  1  0  0  0
 13 14  1  0  0  0
 13 15  2  0  0  0
  6  1  1  0  0  0
 12  7  1  0  0  0
 14 16  1  0  0  0
M  END
> <minimizedAffinity>
14.25761

> <CNNscore>
0.4503606260

> <CNNaffinity>
6.5729532242

> <CNN_VS>
2.9601993561

> <CNNaffinity_variance>
2.5902295113

$$$$
[H]OC(=O)c1[se]c(-c2c([H])c([H])c(OC([H])(C([H])([H])[H])C([H])([H])[H])c(C#N)c2[H])nc1C([H])([H])[H]


 22 23  0  0  0  0  0  0  0  0999 V2000
    6.3246   48.1093  129.5320 C   0  0  0  0  0  0  0  0  0  0  0  0
    6.0887   46.7684  129.7011 C   0  0  0  0  0  0  0  0  0  0  0  0
    6.9824   45.9581  130.3702 C   0  0  0  0  0  0  0  0  0  0  0  0
    8.1480   46.4773  130.8925 C   0  0  0  0  0  0  0  0  0  0  0  0
    8.3748   47.8178  130.7184 C   0  0  0  0  0  0  0  0  0  0  0  0
    7.5078   48.6449  130.0603 C   0  0  0  0  0  0  0  0  0  0  0  0
    9.0797   45.6324  131.5901 C   0  0  0  0  0  0  0  0  0  0  0  0
    9.6671   45.4000  132.6627 N   0  0  0  0  0  0  0  0  0  0  0  0
   10.4992   44.5497  133.0841 C   0  0  0  0  0  0  0  0  0  0  0  0
   11.0102   44.6067  134.5558 C   0  0  0  0  0  0  0  0  0  0  0  0
   11.0215   43.5417  132.3499 C   0  0  0  0  0  0  0  0  0  0  0  0
    9.9951   43.9867  130.5573 Se  0  0  0  0  0  0  0  0  0  0  0  0
   11.9060   42.4505  132.4028 C   0  0  0  0  0  0  0  0  0  0  0  0
   13.2176   42.5985  132.8229 O   0  0  0  0  0  0  0  0  0  0  0  0
   11.5504   41.3219  132.0784 O   0  0  0  0  0  0  0  0  0  0  0  0
   13.9106   42.9697  132.1599 H   0  0  0  0  0  0  0  0  0  0  0  0
    7.7978   50.0480  129.9069 C   0  0  0  0  0  0  0  0  0  0  0  0
    8.0359   51.1578  129.8068 N   0  0  0  0  0  0  0  0  0  0  0  0
    5.5040   48.9900  128.8873 O   0  0  0  0  0  0  0  0  0  0  0  0
    4.8614   50.6340  130.4860 C   0  0  0  0  0  0  0  0  0  0  0  0
    4.4164   49.6540  129.4112 C   0  0  0  0  0  0  0  0  0  0  0  0
    3.6638   50.4859  128.3854 C   0  0  0  0  0  0  0  0  0  0  0  0
 20 21  1  0  0  0
 21 22  1  0  0  0
 21 19  1  0  0  0
 19  1  1  0  0  0
  1  2  2  0  0  0
  2  3  1  0  0  0
  3  4  2  0  0  0
  4  5  1  0  0  0
  5  6  2  0  0  0
  6 17  1  0  0  0
 17 18  3  0  0  0
  4  7  1  0  0  0
  7  8  2  0  0  0
  8  9  1  0  0  0
  9 10  1  0  0  0
  9 11  2  0  0  0
 11 12  1  0  0  0
 11 13  1  0  0  0
 13 14  1  0  0  0
 13 15  2  0  0  0
  6  1  1  0  0  0
 12  7  1  0  0  0
 14 16  1  0  0  0
M  END
> <minimizedAffinity>
1.33871

> <CNNscore>
0.4452612102

> <CNNaffinity>
6.6796064377

> <CNN_VS>
2.9741697311

> <CNNaffinity_variance>
0.9799386263

$$$$
[H]OC(=O)c1[se]c(-c2c([H])c([H])c(OC([H])(C([H])([H])[H])C([H])([H])[H])c(C#N)c2[H])nc1C([H])([H])[H]


 22 23  0  0  0  0  0  0  0  0999 V2000
   10.8704   44.4812  132.1484 C   0  0  0  0  0  0  0  0  0  0  0  0
   11.4051   45.5644  131.4980 C   0  0  0  0  0  0  0  0  0  0  0  0
   10.6028   46.5326  130.9304 C   0  0  0  0  0  0  0  0  0  0  0  0
    9.2291   46.4383  131.0014 C   0  0  0  0  0  0  0  0  0  0  0  0
    8.7045   45.3525  131.6531 C   0  0  0  0  0  0  0  0  0  0  0  0
    9.4742   44.3780  132.2248 C   0  0  0  0  0  0  0  0  0  0  0  0
    8.3928   47.4477  130.4097 C   0  0  0  0  0  0  0  0  0  0  0  0
    7.3681   47.6866  129.7445 N   0  0  0  0  0  0  0  0  0  0  0  0
    6.7796   48.7148  129.3090 C   0  0  0  0  0  0  0  0  0  0  0  0
    5.4660   48.5815  128.4803 C   0  0  0  0  0  0  0  0  0  0  0  0
    7.1953   49.9876  129.4967 C   0  0  0  0  0  0  0  0  0  0  0  0
    8.9216   49.5185  130.6212 Se  0  0  0  0  0  0  0  0  0  0  0  0
    6.8802   51.3284  129.2161 C   0  0  0  0  0  0  0  0  0  0  0  0
    7.0141   51.8545  127.9417 O   0  0  0  0  0  0  0  0  0  0  0  0
    6.4735   52.0870  130.0906 O   0  0  0  0  0  0  0  0  0  0  0  0
    7.9490   52.1352  127.6181 H   0  0  0  0  0  0  0  0  0  0  0  0
    8.8678   43.2576  132.8981 C   0  0  0  0  0  0  0  0  0  0  0  0
    8.4022   42.3576  133.4191 N   0  0  0  0  0  0  0  0  0  0  0  0
   11.5787   43.4747  132.7398 O   0  0  0  0  0  0  0  0  0  0  0  0
   13.0601   44.8501  133.9989 C   0  0  0  0  0  0  0  0  0  0  0  0
   12.2961   43.5375  133.9144 C   0  0  0  0  0  0  0  0  0  0  0  0
   11.4245   43.4908  135.1589 C   0  0  0  0  0  0  0  0  0  0  0  0
 20 21  1  0  0  0
 21 22  1  0  0  0
 21 19  1  0  0  0
 19  1  1  0  0  0
  1  2  2  0  0  0
  2  3  1  0  0  0
  3  4  2  0  0  0
  4  5  1  0  0  0
  5  6  2  0  0  0
  6 17  1  0  0  0
 17 18  3  0  0  0
  4  7  1  0  0  0
  7  8  2  0  0  0
  8  9  1  0  0  0
  9 10  1  0  0  0
  9 11  2  0  0  0
 11 12  1  0  0  0
 11 13  1  0  0  0
 13 14  1  0  0  0
 13 15  2  0  0  0
  6  1  1  0  0  0
 12  7  1  0  0  0
 14 16  1  0  0  0
M  END
> <minimizedAffinity>
-3.86888

> <CNNscore>
0.3977965713

> <CNNaffinity>
6.6782212257

> <CNN_VS>
2.6565735340

> <CNNaffinity_variance>
0.6912158728

$$$$
[H]OC(=O)c1[se]c(-c2c([H])c([H])c(OC([H])(C([H])([H])[H])C([H])([H])[H])c(C#N)c2[H])nc1C([H])([H])[H]


 22 23  0  0  0  0  0  0  0  0999 V2000
    8.3710   48.0907  129.6500 C   0  0  0  0  0  0  0  0  0  0  0  0
    7.9346   48.2067  130.9456 C   0  0  0  0  0  0  0  0  0  0  0  0
    8.3086   47.3003  131.9160 C   0  0  0  0  0  0  0  0  0  0  0  0
    9.1387   46.2432  131.6088 C   0  0  0  0  0  0  0  0  0  0  0  0
    9.5693   46.1358  130.3120 C   0  0  0  0  0  0  0  0  0  0  0  0
    9.2155   47.0182  129.3297 C   0  0  0  0  0  0  0  0  0  0  0  0
    9.5285   45.2984  132.6207 C   0  0  0  0  0  0  0  0  0  0  0  0
    9.5473   44.1046  132.9731 N   0  0  0  0  0  0  0  0  0  0  0  0
    9.9678   43.4513  133.9678 C   0  0  0  0  0  0  0  0  0  0  0  0
    9.7879   41.9040  134.0297 C   0  0  0  0  0  0  0  0  0  0  0  0
   10.5901   43.9850  135.0428 C   0  0  0  0  0  0  0  0  0  0  0  0
   10.5277   45.9937  134.3900 Se  0  0  0  0  0  0  0  0  0  0  0  0
   11.1786   43.6638  136.2783 C   0  0  0  0  0  0  0  0  0  0  0  0
   12.1832   42.7156  136.3794 O   0  0  0  0  0  0  0  0  0  0  0  0
   10.8249   44.2118  137.3176 O   0  0  0  0  0  0  0  0  0  0  0  0
   11.9253   41.7201  136.3833 H   0  0  0  0  0  0  0  0  0  0  0  0
    9.6986   46.8562  127.9819 C   0  0  0  0  0  0  0  0  0  0  0  0
   10.0888   46.7493  126.9167 N   0  0  0  0  0  0  0  0  0  0  0  0
    8.0573   48.9337  128.6227 O   0  0  0  0  0  0  0  0  0  0  0  0
    5.6939   49.0776  128.8786 C   0  0  0  0  0  0  0  0  0  0  0  0
    6.9906   49.8028  128.5525 C   0  0  0  0  0  0  0  0  0  0  0  0
    7.0786   50.9501  129.5458 C   0  0  0  0  0  0  0  0  0  0  0  0
 20 21  1  0  0  0
 21 22  1  0  0  0
 21 19  1  0  0  0
 19  1  1  0  0  0
  1  2  2  0  0  0
  2  3  1  0  0  0
  3  4  2  0  0  0
  4  5  1  0  0  0
  5  6  2  0  0  0
  6 17  1  0  0  0
 17 18  3  0  0  0
  4  7  1  0  0  0
  7  8  2  0  0  0
  8  9  1  0  0  0
  9 10  1  0  0  0
  9 11  2  0  0  0
 11 12  1  0  0  0
 11 13  1  0  0  0
 13 14  1  0  0  0
 13 15  2  0  0  0
  6  1  1  0  0  0
 12  7  1  0  0  0
 14 16  1  0  0  0
M  END
> <minimizedAffinity>
6.09162

> <CNNscore>
0.3957037330

> <CNNaffinity>
6.5340933800

> <CNN_VS>
2.5855650902

> <CNNaffinity_variance>
2.1859900951

$$$$
[H]OC(=O)c1[se]c(-c2c([H])c([H])c(OC([H])(C([H])([H])[H])C([H])([H])[H])c(C#N)c2[H])nc1C([H])([H])[H]


 22 23  0  0  0  0  0  0  0  0999 V2000
   10.4550   43.6829  129.6562 C   0  0  0  0  0  0  0  0  0  0  0  0
   11.2352   44.8072  129.7544 C   0  0  0  0  0  0  0  0  0  0  0  0
   10.9442   45.8100  130.6561 C   0  0  0  0  0  0  0  0  0  0  0  0
    9.8517   45.7099  131.4912 C   0  0  0  0  0  0  0  0  0  0  0  0
    9.0785   44.5831  131.3856 C   0  0  0  0  0  0  0  0  0  0  0  0
    9.3421   43.5737  130.5022 C   0  0  0  0  0  0  0  0  0  0  0  0
    9.5485   46.7554  132.4311 C   0  0  0  0  0  0  0  0  0  0  0  0
    9.6009   47.9740  132.6796 N   0  0  0  0  0  0  0  0  0  0  0  0
    9.2525   48.7296  133.6287 C   0  0  0  0  0  0  0  0  0  0  0  0
    9.5083   50.2654  133.5504 C   0  0  0  0  0  0  0  0  0  0  0  0
    8.6492   48.3209  134.7676 C   0  0  0  0  0  0  0  0  0  0  0  0
    8.5893   46.2638  134.2888 Se  0  0  0  0  0  0  0  0  0  0  0  0
    8.1269   48.7749  135.9911 C   0  0  0  0  0  0  0  0  0  0  0  0
    7.1455   49.7509  136.0443 O   0  0  0  0  0  0  0  0  0  0  0  0
    8.5206   48.3236  137.0621 O   0  0  0  0  0  0  0  0  0  0  0  0
    7.4210   50.7359  135.9377 H   0  0  0  0  0  0  0  0  0  0  0  0
    8.4940   42.4108  130.4345 C   0  0  0  0  0  0  0  0  0  0  0  0
    7.8394   41.4805  130.3689 N   0  0  0  0  0  0  0  0  0  0  0  0
   10.6603   42.6402  128.7989 O   0  0  0  0  0  0  0  0  0  0  0  0
    9.9213   41.1651  127.0814 C   0  0  0  0  0  0  0  0  0  0  0  0
   10.3280   42.5802  127.4632 C   0  0  0  0  0  0  0  0  0  0  0  0
    9.1442   43.4596  127.0942 C   0  0  0  0  0  0  0  0  0  0  0  0
 20 21  1  0  0  0
 21 22  1  0  0  0
 21 19  1  0  0  0
 19  1  1  0  0  0
  1  2  2  0  0  0
  2  3  1  0  0  0
  3  4  2  0  0  0
  4  5  1  0  0  0
  5  6  2  0  0  0
  6 17  1  0  0  0
 17 18  3  0  0  0
  4  7  1  0  0  0
  7  8  2  0  0  0
  8  9  1  0  0  0
  9 10  1  0  0  0
  9 11  2  0  0  0
 11 12  1  0  0  0
 11 13  1  0  0  0
 13 14  1  0  0  0
 13 15  2  0  0  0
  6  1  1  0  0  0
 12  7  1  0  0  0
 14 16  1  0  0  0
M  END
> <minimizedAffinity>
12.06740

> <CNNscore>
0.3927852511

> <CNNaffinity>
6.1751389503

> <CNN_VS>
2.4255034924

> <CNNaffinity_variance>
1.6643860340

$$$$
[H]OC([H])([H])C1([H])C([H])([H])C([H])([H])C([H])([H])[C@@](N([H])C(=O)[C@]([H])(C#N)C([H])([H])C([H])([H])[H])(C([H])([H])[H])C1([H])[H]


 19 19  0  0  0  0  0  0  0  0999 V2000
    9.0233   46.4430  132.7214 C   0  0  0  0  0  0  0  0  0  0  0  0
    9.0510   47.3562  133.9061 C   0  0  0  0  0  0  0  0  0  0  0  0
    8.1620   45.2081  133.0093 C   0  0  0  0  0  0  0  0  0  0  0  0
    8.8053   44.0010  132.3594 C   0  0  0  0  0  0  0  0  0  0  0  0
   10.0299   43.6234  133.1645 C   0  0  0  0  0  0  0  0  0  0  0  0
   10.7184   44.8949  133.5659 C   0  0  0  0  0  0  0  0  0  0  0  0
   10.4323   45.9361  132.5083 C   0  0  0  0  0  0  0  0  0  0  0  0
    8.8312   48.3410  131.0738 C   0  0  0  0  0  0  0  0  0  0  0  0
    9.5378   49.1542  131.7235 O   0  0  0  0  0  0  0  0  0  0  0  0
    8.5526   47.0177  131.5132 N   0  0  0  0  0  0  0  0  0  0  0  0
    7.9549   46.4244  130.8973 H   0  0  0  0  0  0  0  0  0  0  0  0
    8.2758   48.8233  129.7850 C   0  0  0  0  0  0  0  0  0  0  0  0
    6.1716   47.7359  129.0134 C   0  0  0  0  0  0  0  0  0  0  0  0
    7.6845   47.6610  128.9958 C   0  0  0  0  0  0  0  0  0  0  0  0
    7.2766   49.8463  129.9545 C   0  0  0  0  0  0  0  0  0  0  0  0
    6.4894   50.6641  130.1050 N   0  0  0  0  0  0  0  0  0  0  0  0
   12.1979   44.7544  133.7264 C   0  0  0  0  0  0  0  0  0  0  0  0
   12.6729   43.4846  133.4709 O   0  0  0  0  0  0  0  0  0  0  0  0
   11.9575   42.8059  133.3442 H   0  0  0  0  0  0  0  0  0  0  0  0
 13 14  1  0  0  0
 14 12  1  0  0  0
 12 15  1  0  0  0
 15 16  3  0  0  0
 12  8  1  0  0  0
  8  9  2  0  0  0
  8 10  1  0  0  0
  1 10  1  0  0  0
  1  2  1  0  0  0
  1  3  1  0  0  0
  3  4  1  0  0  0
  4  5  1  0  0  0
  5  6  1  0  0  0
  6 17  1  0  0  0
 17 18  1  0  0  0
  6  7  1  0  0  0
  7  1  1  0  0  0
 10 11  1  0  0  0
 18 19  1  0  0  0
M  END
> <minimizedAffinity>
-7.09568

> <CNNscore>
0.8198415637

> <CNNaffinity>
6.7476549149

> <CNN_VS>
5.5320081711

> <CNNaffinity_variance>
0.1092224866

$$$$
[H]OC([H])([H])C1([H])C([H])([H])C([H])([H])C([H])([H])[C@@](N([H])C(=O)[C@]([H])(C#N)C([H])([H])C([H])([H])[H])(C([H])([H])[H])C1([H])[H]


 19 19  0  0  0  0  0  0  0  0999 V2000
   10.5310   45.7708  131.0292 C   0  0  0  0  0  0  0  0  0  0  0  0
   11.1093   45.2121  129.7675 C   0  0  0  0  0  0  0  0  0  0  0  0
   11.6406   46.2923  131.9493 C   0  0  0  0  0  0  0  0  0  0  0  0
   11.2697   45.9854  133.3851 C   0  0  0  0  0  0  0  0  0  0  0  0
   11.4537   44.5013  133.6170 C   0  0  0  0  0  0  0  0  0  0  0  0
   10.9583   43.7864  132.3941 C   0  0  0  0  0  0  0  0  0  0  0  0
    9.8703   44.6285  131.7682 C   0  0  0  0  0  0  0  0  0  0  0  0
    8.2923   46.6699  130.2988 C   0  0  0  0  0  0  0  0  0  0  0  0
    7.8374   45.5736  129.8819 O   0  0  0  0  0  0  0  0  0  0  0  0
    9.5892   46.8181  130.8626 N   0  0  0  0  0  0  0  0  0  0  0  0
    9.8681   47.7727  131.1780 H   0  0  0  0  0  0  0  0  0  0  0  0
    7.3997   47.8495  130.1799 C   0  0  0  0  0  0  0  0  0  0  0  0
    7.3366   50.3357  130.0378 C   0  0  0  0  0  0  0  0  0  0  0  0
    8.2193   49.1096  129.9271 C   0  0  0  0  0  0  0  0  0  0  0  0
    6.4132   47.7019  129.1413 C   0  0  0  0  0  0  0  0  0  0  0  0
    5.6193   47.5738  128.3262 N   0  0  0  0  0  0  0  0  0  0  0  0
   10.4205   42.4195  132.6713 C   0  0  0  0  0  0  0  0  0  0  0  0
   11.2132   41.3962  132.1942 O   0  0  0  0  0  0  0  0  0  0  0  0
   11.9631   41.7038  131.6184 H   0  0  0  0  0  0  0  0  0  0  0  0
 13 14  1  0  0  0
 14 12  1  0  0  0
 12 15  1  0  0  0
 15 16  3  0  0  0
 12  8  1  0  0  0
  8  9  2  0  0  0
  8 10  1  0  0  0
  1 10  1  0  0  0
  1  2  1  0  0  0
  1  3  1  0  0  0
  3  4  1  0  0  0
  4  5  1  0  0  0
  5  6  1  0  0  0
  6 17  1  0  0  0
 17 18  1  0  0  0
  6  7  1  0  0  0
  7  1  1  0  0  0
 10 11  1  0  0  0
 18 19  1  0  0  0
M  END
> <minimizedAffinity>
-6.28065

> <CNNscore>
0.7524935603

> <CNNaffinity>
6.8258333206

> <CNN_VS>
5.1363954544

> <CNNaffinity_variance>
0.4101245403

$$$$
[H]OC([H])([H])C1([H])C([H])([H])C([H])([H])C([H])([H])[C@@](N([H])C(=O)[C@]([H])(C#N)C([H])([H])C([H])([H])[H])(C([H])([H])[H])C1([H])[H]


 19 19  0  0  0  0  0  0  0  0999 V2000
    8.8425   45.3911  131.2033 C   0  0  0  0  0  0  0  0  0  0  0  0
    8.2223   45.4921  132.5611 C   0  0  0  0  0  0  0  0  0  0  0  0
    8.5660   44.0173  130.5821 C   0  0  0  0  0  0  0  0  0  0  0  0
    9.7904   43.5751  129.8085 C   0  0  0  0  0  0  0  0  0  0  0  0
   10.8595   43.1709  130.8004 C   0  0  0  0  0  0  0  0  0  0  0  0
   10.8252   44.1571  131.9310 C   0  0  0  0  0  0  0  0  0  0  0  0
   10.3416   45.4803  131.3833 C   0  0  0  0  0  0  0  0  0  0  0  0
    8.2961   47.7610  130.5406 C   0  0  0  0  0  0  0  0  0  0  0  0
    8.5313   48.2721  131.6658 O   0  0  0  0  0  0  0  0  0  0  0  0
    8.4317   46.3726  130.2655 N   0  0  0  0  0  0  0  0  0  0  0  0
    8.2115   46.0525  129.2971 H   0  0  0  0  0  0  0  0  0  0  0  0
    7.8559   48.6868  129.4677 C   0  0  0  0  0  0  0  0  0  0  0  0
    5.6696   47.5832  129.0117 C   0  0  0  0  0  0  0  0  0  0  0  0
    7.0233   47.9392  128.4326 C   0  0  0  0  0  0  0  0  0  0  0  0
    7.1042   49.8077  129.9698 C   0  0  0  0  0  0  0  0  0  0  0  0
    6.4921   50.6933  130.3600 N   0  0  0  0  0  0  0  0  0  0  0  0
   12.1487   44.3575  132.5964 C   0  0  0  0  0  0  0  0  0  0  0  0
   12.7481   43.1889  133.0188 O   0  0  0  0  0  0  0  0  0  0  0  0
   12.1640   42.3878  132.9437 H   0  0  0  0  0  0  0  0  0  0  0  0
 13 14  1  0  0  0
 14 12  1  0  0  0
 12 15  1  0  0  0
 15 16  3  0  0  0
 12  8  1  0  0  0
  8  9  2  0  0  0
  8 10  1  0  0  0
  1 10  1  0  0  0
  1  2  1  0  0  0
  1  3  1  0  0  0
  3  4  1  0  0  0
  4  5  1  0  0  0
  5  6  1  0  0  0
  6 17  1  0  0  0
 17 18  1  0  0  0
  6  7  1  0  0  0
  7  1  1  0  0  0
 10 11  1  0  0  0
 18 19  1  0  0  0
M  END
> <minimizedAffinity>
-7.11578

> <CNNscore>
0.7139784098

> <CNNaffinity>
6.6539106369

> <CNN_VS>
4.7507486343

> <CNNaffinity_variance>
0.1609330624

$$$$
[H]OC([H])([H])C1([H])C([H])([H])C([H])([H])C([H])([H])[C@@](N([H])C(=O)[C@]([H])(C#N)C([H])([H])C([H])([H])[H])(C([H])([H])[H])C1([H])[H]


 19 19  0  0  0  0  0  0  0  0999 V2000
    9.4995   44.6346  129.9649 C   0  0  0  0  0  0  0  0  0  0  0  0
    8.5855   43.4608  130.1238 C   0  0  0  0  0  0  0  0  0  0  0  0
   10.5261   44.3758  128.8564 C   0  0  0  0  0  0  0  0  0  0  0  0
   11.8529   44.9783  129.2684 C   0  0  0  0  0  0  0  0  0  0  0  0
   12.4548   44.1084  130.3506 C   0  0  0  0  0  0  0  0  0  0  0  0
   11.3421   43.6879  131.2655 C   0  0  0  0  0  0  0  0  0  0  0  0
   10.2877   44.7708  131.2485 C   0  0  0  0  0  0  0  0  0  0  0  0
    8.0130   46.5788  130.5687 C   0  0  0  0  0  0  0  0  0  0  0  0
    7.7245   46.1728  131.7240 O   0  0  0  0  0  0  0  0  0  0  0  0
    8.8672   45.8716  129.6789 N   0  0  0  0  0  0  0  0  0  0  0  0
    9.0416   46.2975  128.7425 H   0  0  0  0  0  0  0  0  0  0  0  0
    7.4116   47.8680  130.1466 C   0  0  0  0  0  0  0  0  0  0  0  0
    8.9602   49.7276  130.7377 C   0  0  0  0  0  0  0  0  0  0  0  0
    8.4912   48.8103  129.6271 C   0  0  0  0  0  0  0  0  0  0  0  0
    6.3912   47.7072  129.1433 C   0  0  0  0  0  0  0  0  0  0  0  0
    5.5761   47.5631  128.3521 N   0  0  0  0  0  0  0  0  0  0  0  0
   11.7781   43.4518  132.6757 C   0  0  0  0  0  0  0  0  0  0  0  0
   12.9279   42.6980  132.7899 O   0  0  0  0  0  0  0  0  0  0  0  0
   13.2370   42.3040  131.9310 H   0  0  0  0  0  0  0  0  0  0  0  0
 13 14  1  0  0  0
 14 12  1  0  0  0
 12 15  1  0  0  0
 15 16  3  0  0  0
 12  8  1  0  0  0
  8  9  2  0  0  0
  8 10  1  0  0  0
  1 10  1  0  0  0
  1  2  1  0  0  0
  1  3  1  0  0  0
  3  4  1  0  0  0
  4  5  1  0  0  0
  5  6  1  0  0  0
  6 17  1  0  0  0
 17 18  1  0  0  0
  6  7  1  0  0  0
  7  1  1  0  0  0
 10 11  1  0  0  0
 18 19  1  0  0  0
M  END
> <minimizedAffinity>
-7.42717

> <CNNscore>
0.6418564320

> <CNNaffinity>
6.5488448143

> <CNN_VS>
4.2034182549

> <CNNaffinity_variance>
0.1119747758

$$$$
[H]OC([H])([H])C1([H])C([H])([H])C([H])([H])C([H])([H])[C@@](N([H])C(=O)[C@]([H])(C#N)C([H])([H])C([H])([H])[H])(C([H])([H])[H])C1([H])[H]


 19 19  0  0  0  0  0  0  0  0999 V2000
    8.8771   46.7108  130.3732 C   0  0  0  0  0  0  0  0  0  0  0  0
   10.0599   46.7169  129.4569 C   0  0  0  0  0  0  0  0  0  0  0  0
    7.7356   45.8783  129.7787 C   0  0  0  0  0  0  0  0  0  0  0  0
    6.4185   46.5496  130.1070 C   0  0  0  0  0  0  0  0  0  0  0  0
    6.2836   47.7823  129.2394 C   0  0  0  0  0  0  0  0  0  0  0  0
    7.6304   48.4410  129.1750 C   0  0  0  0  0  0  0  0  0  0  0  0
    8.3648   48.1313  130.4593 C   0  0  0  0  0  0  0  0  0  0  0  0
    9.5784   44.9203  132.0030 C   0  0  0  0  0  0  0  0  0  0  0  0
    9.8245   44.0408  131.1377 O   0  0  0  0  0  0  0  0  0  0  0  0
    9.1181   46.2274  131.6846 N   0  0  0  0  0  0  0  0  0  0  0  0
    8.9447   46.8809  132.4793 H   0  0  0  0  0  0  0  0  0  0  0  0
    9.7914   44.5375  133.4207 C   0  0  0  0  0  0  0  0  0  0  0  0
   12.2003   45.1710  133.4577 C   0  0  0  0  0  0  0  0  0  0  0  0
   11.2151   44.0324  133.6241 C   0  0  0  0  0  0  0  0  0  0  0  0
    9.5294   45.6171  134.3370 C   0  0  0  0  0  0  0  0  0  0  0  0
    9.3304   46.4866  135.0549 N   0  0  0  0  0  0  0  0  0  0  0  0
    7.5683   49.9233  128.9924 C   0  0  0  0  0  0  0  0  0  0  0  0
    6.3349   50.4732  129.2746 O   0  0  0  0  0  0  0  0  0  0  0  0
    5.6212   49.7993  129.4327 H   0  0  0  0  0  0  0  0  0  0  0  0
 13 14  1  0  0  0
 14 12  1  0  0  0
 12 15  1  0  0  0
 15 16  3  0  0  0
 12  8  1  0  0  0
  8  9  2  0  0  0
  8 10  1  0  0  0
  1 10  1  0  0  0
  1  2  1  0  0  0
  1  3  1  0  0  0
  3  4  1  0  0  0
  4  5  1  0  0  0
  5  6  1  0  0  0
  6 17  1  0  0  0
 17 18  1  0  0  0
  6  7  1  0  0  0
  7  1  1  0  0  0
 10 11  1  0  0  0
 18 19  1  0  0  0
M  END
> <minimizedAffinity>
-6.55866

> <CNNscore>
0.5631792545

> <CNNaffinity>
6.4949798584

> <CNN_VS>
3.6578378677

> <CNNaffinity_variance>
0.0652169958

$$$$
[H]OC([H])([H])C1([H])C([H])([H])C([H])([H])C([H])([H])[C@@](N([H])C(=O)[C@]([H])(C#N)C([H])([H])C([H])([H])[H])(C([H])([H])[H])C1([H])[H]


 19 19  0  0  0  0  0  0  0  0999 V2000
    9.0114   46.9634  131.1149 C   0  0  0  0  0  0  0  0  0  0  0  0
    7.7337   46.1945  131.2361 C   0  0  0  0  0  0  0  0  0  0  0  0
    9.1861   47.9148  132.3040 C   0  0  0  0  0  0  0  0  0  0  0  0
    9.8169   49.2008  131.8127 C   0  0  0  0  0  0  0  0  0  0  0  0
    8.7721   49.9796  131.0433 C   0  0  0  0  0  0  0  0  0  0  0  0
    7.9888   48.9981  130.2217 C   0  0  0  0  0  0  0  0  0  0  0  0
    8.8978   47.8380  129.8862 C   0  0  0  0  0  0  0  0  0  0  0  0
   10.7989   45.4803  132.0943 C   0  0  0  0  0  0  0  0  0  0  0  0
   10.3433   45.4782  133.2669 O   0  0  0  0  0  0  0  0  0  0  0  0
   10.1916   46.1829  131.0176 N   0  0  0  0  0  0  0  0  0  0  0  0
   10.6515   46.1179  130.0833 H   0  0  0  0  0  0  0  0  0  0  0  0
   12.0373   44.6970  131.8598 C   0  0  0  0  0  0  0  0  0  0  0  0
   10.8641   42.5077  131.6700 C   0  0  0  0  0  0  0  0  0  0  0  0
   11.8971   43.2975  132.4471 C   0  0  0  0  0  0  0  0  0  0  0  0
   12.3820   44.6001  130.4650 C   0  0  0  0  0  0  0  0  0  0  0  0
   12.6403   44.5305  129.3516 N   0  0  0  0  0  0  0  0  0  0  0  0
    7.4419   49.5733  128.9550 C   0  0  0  0  0  0  0  0  0  0  0  0
    7.0534   50.8930  129.0587 O   0  0  0  0  0  0  0  0  0  0  0  0
    7.0655   51.2435  129.9890 H   0  0  0  0  0  0  0  0  0  0  0  0
 13 14  1  0  0  0
 14 12  1  0  0  0
 12 15  1  0  0  0
 15 16  3  0  0  0
 12  8  1  0  0  0
  8  9  2  0  0  0
  8 10  1  0  0  0
  1 10  1  0  0  0
  1  2  1  0  0  0
  1  3  1  0  0  0
  3  4  1  0  0  0
  4  5  1  0  0  0
  5  6  1  0  0  0
  6 17  1  0  0  0
 17 18  1  0  0  0
  6  7  1  0  0  0
  7  1  1  0  0  0
 10 11  1  0  0  0
 18 19  1  0  0  0
M  END
> <minimizedAffinity>
-7.28530

> <CNNscore>
0.5234572291

> <CNNaffinity>
6.3635649681

> <CNN_VS>
3.3310539722

> <CNNaffinity_variance>
0.0267079137

$$$$
[H]OC([H])([H])C1([H])C([H])([H])C([H])([H])C([H])([H])[C@@](N([H])C(=O)[C@]([H])(C#N)C([H])([H])C([H])([H])[H])(C([H])([H])[H])C1([H])[H]


 19 19  0  0  0  0  0  0  0  0999 V2000
    9.1370   45.6577  130.9169 C   0  0  0  0  0  0  0  0  0  0  0  0
    7.9854   44.8581  131.4393 C   0  0  0  0  0  0  0  0  0  0  0  0
    9.3317   45.4107  129.4166 C   0  0  0  0  0  0  0  0  0  0  0  0
   10.8150   45.3949  129.1122 C   0  0  0  0  0  0  0  0  0  0  0  0
   11.3948   44.0998  129.6384 C   0  0  0  0  0  0  0  0  0  0  0  0
   10.7523   43.8215  130.9657 C   0  0  0  0  0  0  0  0  0  0  0  0
   10.3877   45.1460  131.5960 C   0  0  0  0  0  0  0  0  0  0  0  0
    7.9894   47.8851  130.6414 C   0  0  0  0  0  0  0  0  0  0  0  0
    7.0017   47.4479  129.9966 O   0  0  0  0  0  0  0  0  0  0  0  0
    9.0489   47.0602  131.1092 N   0  0  0  0  0  0  0  0  0  0  0  0
    9.8211   47.5246  131.6351 H   0  0  0  0  0  0  0  0  0  0  0  0
    8.0164   49.3444  130.9096 C   0  0  0  0  0  0  0  0  0  0  0  0
    9.7384   49.9713  132.5971 C   0  0  0  0  0  0  0  0  0  0  0  0
    9.4503   49.8176  131.1178 C   0  0  0  0  0  0  0  0  0  0  0  0
    7.4033   50.1172  129.8606 C   0  0  0  0  0  0  0  0  0  0  0  0
    6.9224   50.7467  129.0337 N   0  0  0  0  0  0  0  0  0  0  0  0
   11.6231   43.0545  131.9079 C   0  0  0  0  0  0  0  0  0  0  0  0
   11.2508   41.7361  132.0705 O   0  0  0  0  0  0  0  0  0  0  0  0
   10.3813   41.5087  131.6453 H   0  0  0  0  0  0  0  0  0  0  0  0
 13 14  1  0  0  0
 14 12  1  0  0  0
 12 15  1  0  0  0
 15 16  3  0  0  0
 12  8  1  0  0  0
  8  9  2  0  0  0
  8 10  1  0  0  0
  1 10  1  0  0  0
  1  2  1  0  0  0
  1  3  1  0  0  0
  3  4  1  0  0  0
  4  5  1  0  0  0
  5  6  1  0  0  0
  6 17  1  0  0  0
 17 18  1  0  0  0
  6  7  1  0  0  0
  7  1  1  0  0  0
 10 11  1  0  0  0
 18 19  1  0  0  0
M  END
> <minimizedAffinity>
-6.78690

> <CNNscore>
0.5068420172

> <CNNaffinity>
6.5295248032

> <CNN_VS>
3.3094375134

> <CNNaffinity_variance>
0.1798025668

$$$$
[H]OC([H])([H])C1([H])C([H])([H])C([H])([H])C([H])([H])[C@@](N([H])C(=O)[C@]([H])(C#N)C([H])([H])C([H])([H])[H])(C([H])([H])[H])C1([H])[H]


 19 19  0  0  0  0  0  0  0  0999 V2000
    8.4273   46.9122  130.4819 C   0  0  0  0  0  0  0  0  0  0  0  0
    7.0257   46.3900  130.5161 C   0  0  0  0  0  0  0  0  0  0  0  0
    8.8058   47.5369  131.8296 C   0  0  0  0  0  0  0  0  0  0  0  0
    9.6686   48.7558  131.5784 C   0  0  0  0  0  0  0  0  0  0  0  0
    8.7842   49.8637  131.0486 C   0  0  0  0  0  0  0  0  0  0  0  0
    7.8095   49.2462  130.0892 C   0  0  0  0  0  0  0  0  0  0  0  0
    8.4669   48.0347  129.4690 C   0  0  0  0  0  0  0  0  0  0  0  0
    9.5894   44.6956  130.7824 C   0  0  0  0  0  0  0  0  0  0  0  0
    8.8445   44.2782  131.7063 O   0  0  0  0  0  0  0  0  0  0  0  0
    9.4293   45.9625  130.1569 N   0  0  0  0  0  0  0  0  0  0  0  0
   10.1025   46.2111  129.3996 H   0  0  0  0  0  0  0  0  0  0  0  0
   10.6826   43.7908  130.3484 C   0  0  0  0  0  0  0  0  0  0  0  0
   12.5871   44.9334  131.4767 C   0  0  0  0  0  0  0  0  0  0  0  0
   11.9702   44.5792  130.1392 C   0  0  0  0  0  0  0  0  0  0  0  0
   10.9224   42.7175  131.2780 C   0  0  0  0  0  0  0  0  0  0  0  0
   11.1012   41.8713  132.0285 N   0  0  0  0  0  0  0  0  0  0  0  0
    7.3649   50.1714  129.0026 C   0  0  0  0  0  0  0  0  0  0  0  0
    6.9323   51.4013  129.4537 O   0  0  0  0  0  0  0  0  0  0  0  0
    6.8497   51.4603  130.4427 H   0  0  0  0  0  0  0  0  0  0  0  0
 13 14  1  0  0  0
 14 12  1  0  0  0
 12 15  1  0  0  0
 15 16  3  0  0  0
 12  8  1  0  0  0
  8  9  2  0  0  0
  8 10  1  0  0  0
  1 10  1  0  0  0
  1  2  1  0  0  0
  1  3  1  0  0  0
  3  4  1  0  0  0
  4  5  1  0  0  0
  5  6  1  0  0  0
  6 17  1  0  0  0
 17 18  1  0  0  0
  6  7  1  0  0  0
  7  1  1  0  0  0
 10 11  1  0  0  0
 18 19  1  0  0  0
M  END
> <minimizedAffinity>
-7.35481

> <CNNscore>
0.4976154566

> <CNNaffinity>
6.3697218895

> <CNN_VS>
3.1696720123

> <CNNaffinity_variance>
0.0395521075

$$$$
[H]OC([H])([H])C1([H])C([H])([H])C([H])([H])C([H])([H])[C@@](N([H])C(=O)[C@]([H])(C#N)C([H])([H])C([H])([H])[H])(C([H])([H])[H])C1([H])[H]


 19 19  0  0  0  0  0  0  0  0999 V2000
    8.2934   46.8167  130.5513 C   0  0  0  0  0  0  0  0  0  0  0  0
    6.8652   46.3711  130.5661 C   0  0  0  0  0  0  0  0  0  0  0  0
    8.6834   47.4304  131.9008 C   0  0  0  0  0  0  0  0  0  0  0  0
    9.6147   48.5990  131.6555 C   0  0  0  0  0  0  0  0  0  0  0  0
    8.8000   49.7489  131.1038 C   0  0  0  0  0  0  0  0  0  0  0  0
    7.8089   49.1775  130.1327 C   0  0  0  0  0  0  0  0  0  0  0  0
    8.4097   47.9277  129.5316 C   0  0  0  0  0  0  0  0  0  0  0  0
    9.3470   44.5542  130.9050 C   0  0  0  0  0  0  0  0  0  0  0  0
    8.5838   44.1959  131.8388 O   0  0  0  0  0  0  0  0  0  0  0  0
    9.2476   45.8119  130.2492 N   0  0  0  0  0  0  0  0  0  0  0  0
    9.9311   46.0093  129.4860 H   0  0  0  0  0  0  0  0  0  0  0  0
   10.3944   43.5872  130.4929 C   0  0  0  0  0  0  0  0  0  0  0  0
   10.1144   43.3923  128.0252 C   0  0  0  0  0  0  0  0  0  0  0  0
   10.9666   43.9744  129.1342 C   0  0  0  0  0  0  0  0  0  0  0  0
   11.4638   43.4790  131.4511 C   0  0  0  0  0  0  0  0  0  0  0  0
   12.3023   43.3943  132.2263 N   0  0  0  0  0  0  0  0  0  0  0  0
    7.4323   50.1171  129.0328 C   0  0  0  0  0  0  0  0  0  0  0  0
    6.9862   51.3465  129.4718 O   0  0  0  0  0  0  0  0  0  0  0  0
    6.8501   51.3968  130.4554 H   0  0  0  0  0  0  0  0  0  0  0  0
 13 14  1  0  0  0
 14 12  1  0  0  0
 12 15  1  0  0  0
 15 16  3  0  0  0
 12  8  1  0  0  0
  8  9  2  0  0  0
  8 10  1  0  0  0
  1 10  1  0  0  0
  1  2  1  0  0  0
  1  3  1  0  0  0
  3  4  1  0  0  0
  4  5  1  0  0  0
  5  6  1  0  0  0
  6 17  1  0  0  0
 17 18  1  0  0  0
  6  7  1  0  0  0
  7  1  1  0  0  0
 10 11  1  0  0  0
 18 19  1  0  0  0
M  END
> <minimizedAffinity>
-7.29862

> <CNNscore>
0.4671397507

> <CNNaffinity>
6.3575634956

> <CNN_VS>
2.9698705673

> <CNNaffinity_variance>
0.0221997835

$$$$
[H]c1nc([H])c(C([H])([H])N2C([H])([H])C([H])([H])C([H])(N([H])C(=O)c3nc4c([H])c(Cl)c([H])c([H])c4n3[H])C([H])([H])C2([H])[H])c([H])c1[H]


 28 31  0  0  0  0  0  0  0  0999 V2000
    9.2634   47.6649  130.3977 C   0  0  0  0  0  0  0  0  0  0  0  0
    9.7408   47.7291  129.2382 O   0  0  0  0  0  0  0  0  0  0  0  0
    8.6933   48.7534  131.0846 N   0  0  0  0  0  0  0  0  0  0  0  0
    8.3223   48.5974  132.0490 H   0  0  0  0  0  0  0  0  0  0  0  0
    7.9863   41.1387  134.1929 Cl  0  0  0  0  0  0  0  0  0  0  0  0
    8.7657   42.3933  133.2171 C   0  0  0  0  0  0  0  0  0  0  0  0
   10.0391   42.1671  132.7411 C   0  0  0  0  0  0  0  0  0  0  0  0
   10.6480   43.1523  131.9762 C   0  0  0  0  0  0  0  0  0  0  0  0
   10.0079   44.3397  131.6880 C   0  0  0  0  0  0  0  0  0  0  0  0
   10.3195   45.4483  130.9996 N   0  0  0  0  0  0  0  0  0  0  0  0
    9.3388   46.3417  131.0127 C   0  0  0  0  0  0  0  0  0  0  0  0
    8.3362   45.7832  131.7494 N   0  0  0  0  0  0  0  0  0  0  0  0
    8.7349   44.5692  132.1621 C   0  0  0  0  0  0  0  0  0  0  0  0
    8.1194   43.5755  132.9341 C   0  0  0  0  0  0  0  0  0  0  0  0
   11.2272   45.5937  130.5095 H   0  0  0  0  0  0  0  0  0  0  0  0
    8.5760   50.0864  130.5622 C   0  0  0  0  0  0  0  0  0  0  0  0
    8.9164   50.2307  129.1308 C   0  0  0  0  0  0  0  0  0  0  0  0
    7.7511   50.4197  128.2025 C   0  0  0  0  0  0  0  0  0  0  0  0
    6.6778   51.1865  128.7373 N   0  0  0  0  0  0  0  0  0  0  0  0
    6.1850   50.5128  129.9158 C   0  0  0  0  0  0  0  0  0  0  0  0
    7.2363   50.6275  130.9708 C   0  0  0  0  0  0  0  0  0  0  0  0
    6.9293   52.5712  128.9349 C   0  0  0  0  0  0  0  0  0  0  0  0
    6.9982   53.2510  127.6134 C   0  0  0  0  0  0  0  0  0  0  0  0
    8.0727   53.1378  126.7809 C   0  0  0  0  0  0  0  0  0  0  0  0
    8.0888   53.7843  125.5712 C   0  0  0  0  0  0  0  0  0  0  0  0
    7.0137   54.5568  125.1869 C   0  0  0  0  0  0  0  0  0  0  0  0
    5.9564   54.6595  126.0223 N   0  0  0  0  0  0  0  0  0  0  0  0
    5.9182   54.0404  127.2027 C   0  0  0  0  0  0  0  0  0  0  0  0
  5  6  1  0  0  0
  6  7  2  0  0  0
  7  8  1  0  0  0
  8  9  2  0  0  0
  9 10  1  0  0  0
 10 11  1  0  0  0
 11 12  2  0  0  0
 12 13  1  0  0  0
 13 14  2  0  0  0
 11  1  1  0  0  0
  1  2  2  0  0  0
  1  3  1  0  0  0
  3 16  1  0  0  0
 16 17  1  0  0  0
 17 18  1  0  0  0
 18 19  1  0  0  0
 19 22  1  0  0  0
 22 23  1  0  0  0
 23 24  2  0  0  0
 24 25  1  0  0  0
 25 26  2  0  0  0
 26 27  1  0  0  0
 27 28  2  0  0  0
 19 20  1  0  0  0
 20 21  1  0  0  0
 14  6  1  0  0  0
 21 16  1  0  0  0
 13  9  1  0  0  0
 28 23  1  0  0  0
 10 15  1  0  0  0
  3  4  1  0  0  0
M  END
> <minimizedAffinity>
9.41079

> <CNNscore>
0.3119815290

> <CNNaffinity>
6.3618078232

> <CNN_VS>
1.9847664833

> <CNNaffinity_variance>
0.5010302663

$$$$
[H]c1nc([H])c(C([H])([H])N2C([H])([H])C([H])([H])C([H])(N([H])C(=O)c3nc4c([H])c(Cl)c([H])c([H])c4n3[H])C([H])([H])C2([H])[H])c([H])c1[H]


 28 31  0  0  0  0  0  0  0  0999 V2000
    7.2947   49.5029  129.8029 C   0  0  0  0  0  0  0  0  0  0  0  0
    6.3467   48.7013  129.6150 O   0  0  0  0  0  0  0  0  0  0  0  0
    8.3234   49.3115  130.7446 N   0  0  0  0  0  0  0  0  0  0  0  0
    9.0694   50.0388  130.8252 H   0  0  0  0  0  0  0  0  0  0  0  0
    7.7134   54.5697  124.0777 Cl  0  0  0  0  0  0  0  0  0  0  0  0
    7.4470   53.8518  125.6737 C   0  0  0  0  0  0  0  0  0  0  0  0
    7.0028   54.6598  126.6980 C   0  0  0  0  0  0  0  0  0  0  0  0
    6.7946   54.0946  127.9484 C   0  0  0  0  0  0  0  0  0  0  0  0
    7.0221   52.7540  128.1805 C   0  0  0  0  0  0  0  0  0  0  0  0
    6.9180   51.9387  129.2409 N   0  0  0  0  0  0  0  0  0  0  0  0
    7.2629   50.6905  128.9525 C   0  0  0  0  0  0  0  0  0  0  0  0
    7.6097   50.6954  127.6335 N   0  0  0  0  0  0  0  0  0  0  0  0
    7.4662   51.9433  127.1589 C   0  0  0  0  0  0  0  0  0  0  0  0
    7.6766   52.5128  125.8964 C   0  0  0  0  0  0  0  0  0  0  0  0
    6.6025   52.2477  130.1844 H   0  0  0  0  0  0  0  0  0  0  0  0
    8.4370   48.1791  131.6210 C   0  0  0  0  0  0  0  0  0  0  0  0
    9.2822   47.0770  131.1146 C   0  0  0  0  0  0  0  0  0  0  0  0
   10.6303   46.9424  131.7628 C   0  0  0  0  0  0  0  0  0  0  0  0
   10.6607   47.2531  133.1514 N   0  0  0  0  0  0  0  0  0  0  0  0
   10.2381   48.6243  133.3166 C   0  0  0  0  0  0  0  0  0  0  0  0
    8.7815   48.6870  132.9915 C   0  0  0  0  0  0  0  0  0  0  0  0
    9.9948   46.3428  134.0160 C   0  0  0  0  0  0  0  0  0  0  0  0
   10.1596   44.9597  133.4935 C   0  0  0  0  0  0  0  0  0  0  0  0
    9.1084   44.1101  133.3108 C   0  0  0  0  0  0  0  0  0  0  0  0
    9.3117   42.8433  132.8256 C   0  0  0  0  0  0  0  0  0  0  0  0
   10.5865   42.4182  132.5178 C   0  0  0  0  0  0  0  0  0  0  0  0
   11.6179   43.2712  132.7042 N   0  0  0  0  0  0  0  0  0  0  0  0
   11.4447   44.5069  133.1744 C   0  0  0  0  0  0  0  0  0  0  0  0
  5  6  1  0  0  0
  6  7  2  0  0  0
  7  8  1  0  0  0
  8  9  2  0  0  0
  9 10  1  0  0  0
 10 11  1  0  0  0
 11 12  2  0  0  0
 12 13  1  0  0  0
 13 14  2  0  0  0
 11  1  1  0  0  0
  1  2  2  0  0  0
  1  3  1  0  0  0
  3 16  1  0  0  0
 16 17  1  0  0  0
 17 18  1  0  0  0
 18 19  1  0  0  0
 19 22  1  0  0  0
 22 23  1  0  0  0
 23 24  2  0  0  0
 24 25  1  0  0  0
 25 26  2  0  0  0
 26 27  1  0  0  0
 27 28  2  0  0  0
 19 20  1  0  0  0
 20 21  1  0  0  0
 14  6  1  0  0  0
 21 16  1  0  0  0
 13  9  1  0  0  0
 28 23  1  0  0  0
 10 15  1  0  0  0
  3  4  1  0  0  0
M  END
> <minimizedAffinity>
5.78288

> <CNNscore>
0.2323761284

> <CNNaffinity>
6.6511292458

> <CNN_VS>
1.5455636978

> <CNNaffinity_variance>
0.3234296143

$$$$
[H]c1nc([H])c(C([H])([H])N2C([H])([H])C([H])([H])C([H])(N([H])C(=O)c3nc4c([H])c(Cl)c([H])c([H])c4n3[H])C([H])([H])C2([H])[H])c([H])c1[H]


 28 31  0  0  0  0  0  0  0  0999 V2000
    6.8539   49.9648  130.0186 C   0  0  0  0  0  0  0  0  0  0  0  0
    5.9080   50.1085  130.8317 O   0  0  0  0  0  0  0  0  0  0  0  0
    7.7593   48.8869  130.0341 N   0  0  0  0  0  0  0  0  0  0  0  0
    8.5146   48.8577  129.3125 H   0  0  0  0  0  0  0  0  0  0  0  0
    7.9108   54.1504  123.6950 Cl  0  0  0  0  0  0  0  0  0  0  0  0
    7.5369   53.6829  125.3609 C   0  0  0  0  0  0  0  0  0  0  0  0
    7.1520   54.6605  126.2529 C   0  0  0  0  0  0  0  0  0  0  0  0
    6.8593   54.2915  127.5585 C   0  0  0  0  0  0  0  0  0  0  0  0
    6.9460   52.9788  127.9733 C   0  0  0  0  0  0  0  0  0  0  0  0
    6.7362   52.3275  129.1273 N   0  0  0  0  0  0  0  0  0  0  0  0
    6.9610   51.0246  129.0186 C   0  0  0  0  0  0  0  0  0  0  0  0
    7.3372   50.8184  127.7240 N   0  0  0  0  0  0  0  0  0  0  0  0
    7.3304   51.9990  127.0842 C   0  0  0  0  0  0  0  0  0  0  0  0
    7.6260   52.3703  125.7662 C   0  0  0  0  0  0  0  0  0  0  0  0
    6.4313   52.7897  130.0098 H   0  0  0  0  0  0  0  0  0  0  0  0
    7.7323   47.8025  130.9758 C   0  0  0  0  0  0  0  0  0  0  0  0
    6.8537   46.6726  130.6055 C   0  0  0  0  0  0  0  0  0  0  0  0
    7.5559   45.4342  130.1273 C   0  0  0  0  0  0  0  0  0  0  0  0
    8.7954   45.1620  130.7718 N   0  0  0  0  0  0  0  0  0  0  0  0
    9.6815   46.2779  130.5361 C   0  0  0  0  0  0  0  0  0  0  0  0
    9.1517   47.4421  131.3077 C   0  0  0  0  0  0  0  0  0  0  0  0
    8.7241   44.7683  132.1355 C   0  0  0  0  0  0  0  0  0  0  0  0
   10.0624   44.2952  132.5804 C   0  0  0  0  0  0  0  0  0  0  0  0
   10.8884   43.5608  131.7811 C   0  0  0  0  0  0  0  0  0  0  0  0
   12.1143   43.1478  132.2372 C   0  0  0  0  0  0  0  0  0  0  0  0
   12.5218   43.4738  133.5131 C   0  0  0  0  0  0  0  0  0  0  0  0
   11.6927   44.2018  134.2934 N   0  0  0  0  0  0  0  0  0  0  0  0
   10.4968   44.6143  133.8717 C   0  0  0  0  0  0  0  0  0  0  0  0
  5  6  1  0  0  0
  6  7  2  0  0  0
  7  8  1  0  0  0
  8  9  2  0  0  0
  9 10  1  0  0  0
 10 11  1  0  0  0
 11 12  2  0  0  0
 12 13  1  0  0  0
 13 14  2  0  0  0
 11  1  1  0  0  0
  1  2  2  0  0  0
  1  3  1  0  0  0
  3 16  1  0  0  0
 16 17  1  0  0  0
 17 18  1  0  0  0
 18 19  1  0  0  0
 19 22  1  0  0  0
 22 23  1  0  0  0
 23 24  2  0  0  0
 24 25  1  0  0  0
 25 26  2  0  0  0
 26 27  1  0  0  0
 27 28  2  0  0  0
 19 20  1  0  0  0
 20 21  1  0  0  0
 14  6  1  0  0  0
 21 16  1  0  0  0
 13  9  1  0  0  0
 28 23  1  0  0  0
 10 15  1  0  0  0
  3  4  1  0  0  0
M  END
> <minimizedAffinity>
5.86051

> <CNNscore>
0.2144712806

> <CNNaffinity>
6.5804800987

> <CNN_VS>
1.4113240242

> <CNNaffinity_variance>
0.3009302616

$$$$
[H]c1nc([H])c(C([H])([H])N2C([H])([H])C([H])([H])C([H])(N([H])C(=O)c3nc4c([H])c(Cl)c([H])c([H])c4n3[H])C([H])([H])C2([H])[H])c([H])c1[H]


 28 31  0  0  0  0  0  0  0  0999 V2000
    7.1944   47.5170  134.7885 C   0  0  0  0  0  0  0  0  0  0  0  0
    6.6479   46.4295  134.4804 O   0  0  0  0  0  0  0  0  0  0  0  0
    6.6675   48.7864  134.4840 N   0  0  0  0  0  0  0  0  0  0  0  0
    7.1994   49.6341  134.7847 H   0  0  0  0  0  0  0  0  0  0  0  0
   13.8365   45.1581  137.7790 Cl  0  0  0  0  0  0  0  0  0  0  0  0
   12.4265   46.1541  137.3872 C   0  0  0  0  0  0  0  0  0  0  0  0
   12.3283   47.4114  137.9430 C   0  0  0  0  0  0  0  0  0  0  0  0
   11.2219   48.1904  137.6342 C   0  0  0  0  0  0  0  0  0  0  0  0
   10.2309   47.7330  136.7908 C   0  0  0  0  0  0  0  0  0  0  0  0
    9.0790   48.2300  136.3152 N   0  0  0  0  0  0  0  0  0  0  0  0
    8.4577   47.3787  135.5094 C   0  0  0  0  0  0  0  0  0  0  0  0
    9.2488   46.2690  135.4587 N   0  0  0  0  0  0  0  0  0  0  0  0
   10.3258   46.4767  136.2334 C   0  0  0  0  0  0  0  0  0  0  0  0
   11.4422   45.6896  136.5443 C   0  0  0  0  0  0  0  0  0  0  0  0
    8.7118   49.1762  136.5502 H   0  0  0  0  0  0  0  0  0  0  0  0
    5.4365   49.0199  133.7813 C   0  0  0  0  0  0  0  0  0  0  0  0
    5.5265   48.9189  132.3092 C   0  0  0  0  0  0  0  0  0  0  0  0
    4.9264   47.6814  131.7058 C   0  0  0  0  0  0  0  0  0  0  0  0
    3.7564   47.2030  132.3600 N   0  0  0  0  0  0  0  0  0  0  0  0
    4.0993   46.8925  133.7283 C   0  0  0  0  0  0  0  0  0  0  0  0
    4.3689   48.1848  134.4274 C   0  0  0  0  0  0  0  0  0  0  0  0
    2.5899   48.0046  132.2320 C   0  0  0  0  0  0  0  0  0  0  0  0
    2.9252   49.2422  131.4777 C   0  0  0  0  0  0  0  0  0  0  0  0
    3.9940   50.0298  131.7903 C   0  0  0  0  0  0  0  0  0  0  0  0
    4.2621   51.1620  131.0639 C   0  0  0  0  0  0  0  0  0  0  0  0
    3.4490   51.5133  130.0076 C   0  0  0  0  0  0  0  0  0  0  0  0
    2.3938   50.7232  129.7099 N   0  0  0  0  0  0  0  0  0  0  0  0
    2.1136   49.6182  130.4016 C   0  0  0  0  0  0  0  0  0  0  0  0
  5  6  1  0  0  0
  6  7  2  0  0  0
  7  8  1  0  0  0
  8  9  2  0  0  0
  9 10  1  0  0  0
 10 11  1  0  0  0
 11 12  2  0  0  0
 12 13  1  0  0  0
 13 14  2  0  0  0
 11  1  1  0  0  0
  1  2  2  0  0  0
  1  3  1  0  0  0
  3 16  1  0  0  0
 16 17  1  0  0  0
 17 18  1  0  0  0
 18 19  1  0  0  0
 19 22  1  0  0  0
 22 23  1  0  0  0
 23 24  2  0  0  0
 24 25  1  0  0  0
 25 26  2  0  0  0
 26 27  1  0  0  0
 27 28  2  0  0  0
 19 20  1  0  0  0
 20 21  1  0  0  0
 14  6  1  0  0  0
 21 16  1  0  0  0
 13  9  1  0  0  0
 28 23  1  0  0  0
 10 15  1  0  0  0
  3  4  1  0  0  0
M  END
> <minimizedAffinity>
245.17027

> <CNNscore>
0.1967284530

> <CNNaffinity>
4.6997251511

> <CNN_VS>
0.9245696664

> <CNNaffinity_variance>
4.5525698662

$$$$
[H]c1nc([H])c(C([H])([H])N2C([H])([H])C([H])([H])C([H])(N([H])C(=O)c3nc4c([H])c(Cl)c([H])c([H])c4n3[H])C([H])([H])C2([H])[H])c([H])c1[H]


 28 31  0  0  0  0  0  0  0  0999 V2000
    8.2032   47.1651  130.8281 C   0  0  0  0  0  0  0  0  0  0  0  0
    8.4955   47.1416  132.0490 O   0  0  0  0  0  0  0  0  0  0  0  0
    8.2357   46.0415  129.9807 N   0  0  0  0  0  0  0  0  0  0  0  0
    7.9738   46.1645  128.9765 H   0  0  0  0  0  0  0  0  0  0  0  0
    7.0666   53.5151  126.7037 Cl  0  0  0  0  0  0  0  0  0  0  0  0
    7.0302   52.3371  128.0245 C   0  0  0  0  0  0  0  0  0  0  0  0
    6.3614   52.6629  129.1847 C   0  0  0  0  0  0  0  0  0  0  0  0
    6.3341   51.7376  130.2188 C   0  0  0  0  0  0  0  0  0  0  0  0
    6.9576   50.5123  130.1065 C   0  0  0  0  0  0  0  0  0  0  0  0
    7.1055   49.4411  130.9007 N   0  0  0  0  0  0  0  0  0  0  0  0
    7.8129   48.4792  130.3226 C   0  0  0  0  0  0  0  0  0  0  0  0
    8.1423   48.9509  129.0861 N   0  0  0  0  0  0  0  0  0  0  0  0
    7.6270   50.1833  128.9481 C   0  0  0  0  0  0  0  0  0  0  0  0
    7.6551   51.1164  127.9037 C   0  0  0  0  0  0  0  0  0  0  0  0
    6.7107   49.3701  131.8621 H   0  0  0  0  0  0  0  0  0  0  0  0
    8.6054   44.7142  130.3870 C   0  0  0  0  0  0  0  0  0  0  0  0
    8.6772   43.7213  129.2941 C   0  0  0  0  0  0  0  0  0  0  0  0
   10.0614   43.3195  128.8722 C   0  0  0  0  0  0  0  0  0  0  0  0
   11.0136   43.2535  129.9279 N   0  0  0  0  0  0  0  0  0  0  0  0
   11.1100   44.5621  130.5315 C   0  0  0  0  0  0  0  0  0  0  0  0
    9.8275   44.8187  131.2532 C   0  0  0  0  0  0  0  0  0  0  0  0
   10.8402   42.2026  130.8688 C   0  0  0  0  0  0  0  0  0  0  0  0
   11.0834   42.7262  132.2398 C   0  0  0  0  0  0  0  0  0  0  0  0
   10.1140   42.7618  133.1985 C   0  0  0  0  0  0  0  0  0  0  0  0
   10.3877   43.2542  134.4492 C   0  0  0  0  0  0  0  0  0  0  0  0
   11.6509   43.7188  134.7471 C   0  0  0  0  0  0  0  0  0  0  0  0
   12.6010   43.6772  133.7870 N   0  0  0  0  0  0  0  0  0  0  0  0
   12.3584   43.2031  132.5645 C   0  0  0  0  0  0  0  0  0  0  0  0
  5  6  1  0  0  0
  6  7  2  0  0  0
  7  8  1  0  0  0
  8  9  2  0  0  0
  9 10  1  0  0  0
 10 11  1  0  0  0
 11 12  2  0  0  0
 12 13  1  0  0  0
 13 14  2  0  0  0
 11  1  1  0  0  0
  1  2  2  0  0  0
  1  3  1  0  0  0
  3 16  1  0  0  0
 16 17  1  0  0  0
 17 18  1  0  0  0
 18 19  1  0  0  0
 19 22  1  0  0  0
 22 23  1  0  0  0
 23 24  2  0  0  0
 24 25  1  0  0  0
 25 26  2  0  0  0
 26 27  1  0  0  0
 27 28  2  0  0  0
 19 20  1  0  0  0
 20 21  1  0  0  0
 14  6  1  0  0  0
 21 16  1  0  0  0
 13  9  1  0  0  0
 28 23  1  0  0  0
 10 15  1  0  0  0
  3  4  1  0  0  0
M  END
> <minimizedAffinity>
2.79315

> <CNNscore>
0.1148727089

> <CNNaffinity>
6.8904900551

> <CNN_VS>
0.7915292382

> <CNNaffinity_variance>
0.3508370519

$$$$
[H]c1nc([H])c(C([H])([H])N2C([H])([H])C([H])([H])C([H])(N([H])C(=O)c3nc4c([H])c(Cl)c([H])c([H])c4n3[H])C([H])([H])C2([H])[H])c([H])c1[H]


 28 31  0  0  0  0  0  0  0  0999 V2000
    8.5110   47.1944  130.7886 C   0  0  0  0  0  0  0  0  0  0  0  0
    8.5665   46.2940  129.9153 O   0  0  0  0  0  0  0  0  0  0  0  0
    8.8855   47.0213  132.1345 N   0  0  0  0  0  0  0  0  0  0  0  0
    8.8023   47.8346  132.7854 H   0  0  0  0  0  0  0  0  0  0  0  0
    6.9137   53.5262  126.7907 Cl  0  0  0  0  0  0  0  0  0  0  0  0
    6.9467   52.3129  128.0793 C   0  0  0  0  0  0  0  0  0  0  0  0
    6.2147   52.5423  129.2243 C   0  0  0  0  0  0  0  0  0  0  0  0
    6.2421   51.5895  130.2332 C   0  0  0  0  0  0  0  0  0  0  0  0
    6.9807   50.4309  130.1107 C   0  0  0  0  0  0  0  0  0  0  0  0
    7.2034   49.3560  130.8820 N   0  0  0  0  0  0  0  0  0  0  0  0
    8.0153   48.4805  130.3037 C   0  0  0  0  0  0  0  0  0  0  0  0
    8.3373   49.0157  129.0913 N   0  0  0  0  0  0  0  0  0  0  0  0
    7.7135   50.1984  128.9675 C   0  0  0  0  0  0  0  0  0  0  0  0
    7.6865   51.1594  127.9486 C   0  0  0  0  0  0  0  0  0  0  0  0
    6.7875   49.2214  131.8276 H   0  0  0  0  0  0  0  0  0  0  0  0
    9.3821   45.7978  132.7001 C   0  0  0  0  0  0  0  0  0  0  0  0
   10.8385   45.5873  132.5576 C   0  0  0  0  0  0  0  0  0  0  0  0
   11.6474   45.7797  133.8083 C   0  0  0  0  0  0  0  0  0  0  0  0
   11.0040   45.3630  135.0075 N   0  0  0  0  0  0  0  0  0  0  0  0
    9.7892   46.1294  135.1579 C   0  0  0  0  0  0  0  0  0  0  0  0
    8.8404   45.6794  134.0955 C   0  0  0  0  0  0  0  0  0  0  0  0
   10.8195   43.9633  135.1705 C   0  0  0  0  0  0  0  0  0  0  0  0
   10.9510   43.2937  133.8486 C   0  0  0  0  0  0  0  0  0  0  0  0
   12.1249   43.2542  133.1553 C   0  0  0  0  0  0  0  0  0  0  0  0
   12.1958   42.6236  131.9392 C   0  0  0  0  0  0  0  0  0  0  0  0
   11.0753   42.0225  131.4069 C   0  0  0  0  0  0  0  0  0  0  0  0
    9.9194   42.0698  132.1054 N   0  0  0  0  0  0  0  0  0  0  0  0
    9.8265   42.6768  133.2890 C   0  0  0  0  0  0  0  0  0  0  0  0
  5  6  1  0  0  0
  6  7  2  0  0  0
  7  8  1  0  0  0
  8  9  2  0  0  0
  9 10  1  0  0  0
 10 11  1  0  0  0
 11 12  2  0  0  0
 12 13  1  0  0  0
 13 14  2  0  0  0
 11  1  1  0  0  0
  1  2  2  0  0  0
  1  3  1  0  0  0
  3 16  1  0  0  0
 16 17  1  0  0  0
 17 18  1  0  0  0
 18 19  1  0  0  0
 19 22  1  0  0  0
 22 23  1  0  0  0
 23 24  2  0  0  0
 24 25  1  0  0  0
 25 26  2  0  0  0
 26 27  1  0  0  0
 27 28  2  0  0  0
 19 20  1  0  0  0
 20 21  1  0  0  0
 14  6  1  0  0  0
 21 16  1  0  0  0
 13  9  1  0  0  0
 28 23  1  0  0  0
 10 15  1  0  0  0
  3  4  1  0  0  0
M  END
> <minimizedAffinity>
4.15578

> <CNNscore>
0.0833573043

> <CNNaffinity>
6.7790350914

> <CNN_VS>
0.5650820732

> <CNNaffinity_variance>
0.3541507721

$$$$
[H]c1nc([H])c(C([H])([H])N2C([H])([H])C([H])([H])C([H])(N([H])C(=O)c3nc4c([H])c(Cl)c([H])c([H])c4n3[H])C([H])([H])C2([H])[H])c([H])c1[H]


 28 31  0  0  0  0  0  0  0  0999 V2000
    9.0293   47.3718  131.3812 C   0  0  0  0  0  0  0  0  0  0  0  0
    8.8788   46.2137  130.9202 O   0  0  0  0  0  0  0  0  0  0  0  0
    9.8453   47.6893  132.4836 N   0  0  0  0  0  0  0  0  0  0  0  0
    9.9044   48.6861  132.7915 H   0  0  0  0  0  0  0  0  0  0  0  0
    6.7229   53.5750  127.5306 Cl  0  0  0  0  0  0  0  0  0  0  0  0
    6.7127   52.0290  128.3930 C   0  0  0  0  0  0  0  0  0  0  0  0
    5.5130   51.3719  128.5611 C   0  0  0  0  0  0  0  0  0  0  0  0
    5.5075   50.1600  129.2375 C   0  0  0  0  0  0  0  0  0  0  0  0
    6.6686   49.6088  129.7385 C   0  0  0  0  0  0  0  0  0  0  0  0
    6.9800   48.4924  130.4142 N   0  0  0  0  0  0  0  0  0  0  0  0
    8.2776   48.4079  130.6769 C   0  0  0  0  0  0  0  0  0  0  0  0
    8.8394   49.5301  130.1429 N   0  0  0  0  0  0  0  0  0  0  0  0
    7.8697   50.2630  129.5722 C   0  0  0  0  0  0  0  0  0  0  0  0
    7.8763   51.4862  128.8896 C   0  0  0  0  0  0  0  0  0  0  0  0
    6.2841   47.7721  130.7011 H   0  0  0  0  0  0  0  0  0  0  0  0
   10.6186   46.7407  133.2357 C   0  0  0  0  0  0  0  0  0  0  0  0
   10.7957   47.0702  134.6659 C   0  0  0  0  0  0  0  0  0  0  0  0
    9.9841   46.2490  135.6264 C   0  0  0  0  0  0  0  0  0  0  0  0
    9.8059   44.8884  135.2487 N   0  0  0  0  0  0  0  0  0  0  0  0
    9.1258   44.8588  133.9749 C   0  0  0  0  0  0  0  0  0  0  0  0
   10.0796   45.3697  132.9451 C   0  0  0  0  0  0  0  0  0  0  0  0
   10.9623   44.0638  135.2973 C   0  0  0  0  0  0  0  0  0  0  0  0
   11.1478   43.4003  133.9788 C   0  0  0  0  0  0  0  0  0  0  0  0
   10.1951   42.6051  133.4127 C   0  0  0  0  0  0  0  0  0  0  0  0
   10.4133   42.0153  132.1936 C   0  0  0  0  0  0  0  0  0  0  0  0
   11.6030   42.2233  131.5291 C   0  0  0  0  0  0  0  0  0  0  0  0
   12.5374   43.0135  132.1025 N   0  0  0  0  0  0  0  0  0  0  0  0
   12.3477   43.5973  133.2862 C   0  0  0  0  0  0  0  0  0  0  0  0
  5  6  1  0  0  0
  6  7  2  0  0  0
  7  8  1  0  0  0
  8  9  2  0  0  0
  9 10  1  0  0  0
 10 11  1  0  0  0
 11 12  2  0  0  0
 12 13  1  0  0  0
 13 14  2  0  0  0
 11  1  1  0  0  0
  1  2  2  0  0  0
  1  3  1  0  0  0
  3 16  1  0  0  0
 16 17  1  0  0  0
 17 18  1  0  0  0
 18 19  1  0  0  0
 19 22  1  0  0  0
 22 23  1  0  0  0
 23 24  2  0  0  0
 24 25  1  0  0  0
 25 26  2  0  0  0
 26 27  1  0  0  0
 27 28  2  0  0  0
 19 20  1  0  0  0
 20 21  1  0  0  0
 14  6  1  0  0  0
 21 16  1  0  0  0
 13  9  1  0  0  0
 28 23  1  0  0  0
 10 15  1  0  0  0
  3  4  1  0  0  0
M  END
> <minimizedAffinity>
5.35492

> <CNNscore>
0.0713235661

> <CNNaffinity>
6.8829383850

> <CNN_VS>
0.4909157157

> <CNNaffinity_variance>
0.3962168097

$$$$
[H]c1nc([H])c(C([H])([H])N2C([H])([H])C([H])([H])C([H])(N([H])C(=O)c3nc4c([H])c(Cl)c([H])c([H])c4n3[H])C([H])([H])C2([H])[H])c([H])c1[H]


 28 31  0  0  0  0  0  0  0  0999 V2000
    8.2994   46.6840  130.0152 C   0  0  0  0  0  0  0  0  0  0  0  0
    7.4514   45.9221  130.5414 O   0  0  0  0  0  0  0  0  0  0  0  0
    9.6218   46.3113  129.7088 N   0  0  0  0  0  0  0  0  0  0  0  0
   10.2525   47.0200  129.2705 H   0  0  0  0  0  0  0  0  0  0  0  0
    6.8460   53.6091  127.0900 Cl  0  0  0  0  0  0  0  0  0  0  0  0
    6.8161   52.1871  128.1440 C   0  0  0  0  0  0  0  0  0  0  0  0
    6.0020   52.2035  129.2559 C   0  0  0  0  0  0  0  0  0  0  0  0
    5.9802   51.0874  130.0806 C   0  0  0  0  0  0  0  0  0  0  0  0
    6.7502   49.9755  129.8095 C   0  0  0  0  0  0  0  0  0  0  0  0
    6.9422   48.7830  130.3935 N   0  0  0  0  0  0  0  0  0  0  0  0
    7.8108   48.0311  129.7300 C   0  0  0  0  0  0  0  0  0  0  0  0
    8.2041   48.7754  128.6570 N   0  0  0  0  0  0  0  0  0  0  0  0
    7.5651   49.9557  128.6987 C   0  0  0  0  0  0  0  0  0  0  0  0
    7.5878   51.0816  127.8657 C   0  0  0  0  0  0  0  0  0  0  0  0
    6.4650   48.4794  131.2683 H   0  0  0  0  0  0  0  0  0  0  0  0
   10.1891   45.0142  129.9520 C   0  0  0  0  0  0  0  0  0  0  0  0
   11.1107   44.5267  128.9040 C   0  0  0  0  0  0  0  0  0  0  0  0
   12.5700   44.5576  129.2576 C   0  0  0  0  0  0  0  0  0  0  0  0
   12.8620   44.2712  130.6209 N   0  0  0  0  0  0  0  0  0  0  0  0
   12.1989   45.2576  131.4414 C   0  0  0  0  0  0  0  0  0  0  0  0
   10.7300   45.0007  131.3527 C   0  0  0  0  0  0  0  0  0  0  0  0
   12.6403   42.9333  131.0457 C   0  0  0  0  0  0  0  0  0  0  0  0
   11.7315   42.9366  132.2236 C   0  0  0  0  0  0  0  0  0  0  0  0
   10.4108   42.6071  132.1371 C   0  0  0  0  0  0  0  0  0  0  0  0
    9.6131   42.6249  133.2529 C   0  0  0  0  0  0  0  0  0  0  0  0
   10.1437   42.9777  134.4753 C   0  0  0  0  0  0  0  0  0  0  0  0
   11.4538   43.3017  134.5453 N   0  0  0  0  0  0  0  0  0  0  0  0
   12.2484   43.2915  133.4746 C   0  0  0  0  0  0  0  0  0  0  0  0
  5  6  1  0  0  0
  6  7  2  0  0  0
  7  8  1  0  0  0
  8  9  2  0  0  0
  9 10  1  0  0  0
 10 11  1  0  0  0
 11 12  2  0  0  0
 12 13  1  0  0  0
 13 14  2  0  0  0
 11  1  1  0  0  0
  1  2  2  0  0  0
  1  3  1  0  0  0
  3 16  1  0  0  0
 16 17  1  0  0  0
 17 18  1  0  0  0
 18 19  1  0  0  0
 19 22  1  0  0  0
 22 23  1  0  0  0
 23 24  2  0  0  0
 24 25  1  0  0  0
 25 26  2  0  0  0
 26 27  1  0  0  0
 27 28  2  0  0  0
 19 20  1  0  0  0
 20 21  1  0  0  0
 14  6  1  0  0  0
 21 16  1  0  0  0
 13  9  1  0  0  0
 28 23  1  0  0  0
 10 15  1  0  0  0
  3  4  1  0  0  0
M  END
> <minimizedAffinity>
3.55995

> <CNNscore>
0.0558295213

> <CNNaffinity>
6.5646848679

> <CNN_VS>
0.3665032089

> <CNNaffinity_variance>
0.2330266982

$$$$
[H]c1nc([H])c(C([H])([H])N2C([H])([H])C([H])([H])C([H])(N([H])C(=O)c3nc4c([H])c(Cl)c([H])c([H])c4n3[H])C([H])([H])C2([H])[H])c([H])c1[H]


 28 31  0  0  0  0  0  0  0  0999 V2000
    8.4820   46.3977  130.7399 C   0  0  0  0  0  0  0  0  0  0  0  0
    8.3632   46.1129  131.9569 O   0  0  0  0  0  0  0  0  0  0  0  0
    9.3259   45.7166  129.8422 N   0  0  0  0  0  0  0  0  0  0  0  0
    9.3542   46.0308  128.8460 H   0  0  0  0  0  0  0  0  0  0  0  0
    3.0146   50.9722  127.9456 Cl  0  0  0  0  0  0  0  0  0  0  0  0
    4.5230   50.4058  128.6788 C   0  0  0  0  0  0  0  0  0  0  0  0
    5.4623   51.3371  129.0658 C   0  0  0  0  0  0  0  0  0  0  0  0
    6.6441   50.8906  129.6405 C   0  0  0  0  0  0  0  0  0  0  0  0
    6.8915   49.5467  129.8285 C   0  0  0  0  0  0  0  0  0  0  0  0
    7.9013   48.8250  130.3380 N   0  0  0  0  0  0  0  0  0  0  0  0
    7.6600   47.5212  130.2963 C   0  0  0  0  0  0  0  0  0  0  0  0
    6.4268   47.3888  129.7292 N   0  0  0  0  0  0  0  0  0  0  0  0
    5.9548   48.6129  129.4429 C   0  0  0  0  0  0  0  0  0  0  0  0
    4.7616   49.0625  128.8628 C   0  0  0  0  0  0  0  0  0  0  0  0
    8.7764   49.2388  130.7232 H   0  0  0  0  0  0  0  0  0  0  0  0
   10.1677   44.6046  130.1862 C   0  0  0  0  0  0  0  0  0  0  0  0
   11.1032   44.1751  129.1252 C   0  0  0  0  0  0  0  0  0  0  0  0
   12.5427   44.5457  129.3402 C   0  0  0  0  0  0  0  0  0  0  0  0
   12.9739   44.5103  130.6961 N   0  0  0  0  0  0  0  0  0  0  0  0
   12.1712   45.4450  131.4497 C   0  0  0  0  0  0  0  0  0  0  0  0
   10.7867   44.8890  131.5243 C   0  0  0  0  0  0  0  0  0  0  0  0
   13.0661   43.2249  131.2953 C   0  0  0  0  0  0  0  0  0  0  0  0
   12.1886   43.1789  132.4956 C   0  0  0  0  0  0  0  0  0  0  0  0
   12.4929   43.8260  133.6571 C   0  0  0  0  0  0  0  0  0  0  0  0
   11.6506   43.7534  134.7373 C   0  0  0  0  0  0  0  0  0  0  0  0
   10.4849   43.0221  134.6558 C   0  0  0  0  0  0  0  0  0  0  0  0
   10.1968   42.3864  133.4986 N   0  0  0  0  0  0  0  0  0  0  0  0
   11.0001   42.4426  132.4357 C   0  0  0  0  0  0  0  0  0  0  0  0
  5  6  1  0  0  0
  6  7  2  0  0  0
  7  8  1  0  0  0
  8  9  2  0  0  0
  9 10  1  0  0  0
 10 11  1  0  0  0
 11 12  2  0  0  0
 12 13  1  0  0  0
 13 14  2  0  0  0
 11  1  1  0  0  0
  1  2  2  0  0  0
  1  3  1  0  0  0
  3 16  1  0  0  0
 16 17  1  0  0  0
 17 18  1  0  0  0
 18 19  1  0  0  0
 19 22  1  0  0  0
 22 23  1  0  0  0
 23 24  2  0  0  0
 24 25  1  0  0  0
 25 26  2  0  0  0
 26 27  1  0  0  0
 27 28  2  0  0  0
 19 20  1  0  0  0
 20 21  1  0  0  0
 14  6  1  0  0  0
 21 16  1  0  0  0
 13  9  1  0  0  0
 28 23  1  0  0  0
 10 15  1  0  0  0
  3  4  1  0  0  0
M  END
> <minimizedAffinity>
4.20824

> <CNNscore>
0.0516235009

> <CNNaffinity>
6.7726202011

> <CNN_VS>
0.3496263623

> <CNNaffinity_variance>
0.3062066138

$$$$
[H]OC(=O)C([H])([H])[C@@]([H])(C([H])=O)N([H])C(=O)[C@@]([H])(C([H])([H])C(=O)N([H])C([H])([H])C([H])([H])c1c([H])c([H])c([H])c([H])c1[H])C([H])(C([H])([H])[H])C([H])([H])[H]


 29 29  0  0  0  0  0  0  0  0999 V2000
    9.3992   44.6183  130.0847 C   0  0  0  0  0  0  0  0  0  0  0  0
    8.3825   45.6991  130.1317 C   0  0  0  0  0  0  0  0  0  0  0  0
    7.2680   45.4919  130.7476 O   0  0  0  0  0  0  0  0  0  0  0  0
    8.5137   46.9694  129.5593 N   0  0  0  0  0  0  0  0  0  0  0  0
    9.3320   47.2858  129.0131 H   0  0  0  0  0  0  0  0  0  0  0  0
    7.4502   47.9810  129.6785 C   0  0  0  0  0  0  0  0  0  0  0  0
    6.6518   47.9259  128.4400 C   0  0  0  0  0  0  0  0  0  0  0  0
    5.5077   47.4532  128.4842 O   0  0  0  0  0  0  0  0  0  0  0  0
    8.0984   49.3541  129.8165 C   0  0  0  0  0  0  0  0  0  0  0  0
    7.0879   50.4118  129.6875 C   0  0  0  0  0  0  0  0  0  0  0  0
    7.1173   51.3092  128.6414 O   0  0  0  0  0  0  0  0  0  0  0  0
    6.1626   50.5027  130.5590 O   0  0  0  0  0  0  0  0  0  0  0  0
    6.5229   51.2900  127.8348 H   0  0  0  0  0  0  0  0  0  0  0  0
   11.4356   44.9153  128.6352 C   0  0  0  0  0  0  0  0  0  0  0  0
    9.9586   44.5873  128.6959 C   0  0  0  0  0  0  0  0  0  0  0  0
    9.7893   43.2832  127.9648 C   0  0  0  0  0  0  0  0  0  0  0  0
    8.9442   43.3216  130.6091 C   0  0  0  0  0  0  0  0  0  0  0  0
    9.2729   43.1114  132.0686 C   0  0  0  0  0  0  0  0  0  0  0  0
    8.3807   42.6686  132.8082 O   0  0  0  0  0  0  0  0  0  0  0  0
   10.5472   43.4269  132.5143 N   0  0  0  0  0  0  0  0  0  0  0  0
   11.1882   43.8059  131.6902 H   0  0  0  0  0  0  0  0  0  0  0  0
   11.2134   43.3798  133.7344 C   0  0  0  0  0  0  0  0  0  0  0  0
   11.2872   44.5757  134.5726 C   0  0  0  0  0  0  0  0  0  0  0  0
   10.5851   45.7883  134.2137 C   0  0  0  0  0  0  0  0  0  0  0  0
    9.3745   46.0980  134.8500 C   0  0  0  0  0  0  0  0  0  0  0  0
    8.6541   47.1885  134.4625 C   0  0  0  0  0  0  0  0  0  0  0  0
    9.0702   48.0324  133.4407 C   0  0  0  0  0  0  0  0  0  0  0  0
   10.2547   47.7383  132.8110 C   0  0  0  0  0  0  0  0  0  0  0  0
   10.9970   46.6443  133.1853 C   0  0  0  0  0  0  0  0  0  0  0  0
 14 15  1  0  0  0
 15 16  1  0  0  0
 15  1  1  0  0  0
  1 17  1  0  0  0
 17 18  1  0  0  0
 18 19  2  0  0  0
 18 20  1  0  0  0
 20 22  1  0  0  0
 22 23  1  0  0  0
 23 24  1  0  0  0
 24 25  2  0  0  0
 25 26  1  0  0  0
 26 27  2  0  0  0
 27 28  1  0  0  0
 28 29  2  0  0  0
  1  2  1  0  0  0
  2  3  2  0  0  0
  2  4  1  0  0  0
  4  6  1  0  0  0
  6  9  1  0  0  0
  9 10  1  0  0  0
 10 11  1  0  0  0
 10 12  2  0  0  0
  6  7  1  0  0  0
  7  8  2  0  0  0
 29 24  1  0  0  0
 20 21  1  0  0  0
  4  5  1  0  0  0
 11 13  1  0  0  0
M  END
> <minimizedAffinity>
-8.39058

> <CNNscore>
0.2388404310

> <CNNaffinity>
6.4676833153

> <CNN_VS>
1.5447442532

> <CNNaffinity_variance>
0.4543649256

$$$$
[H]OC(=O)C([H])([H])[C@@]([H])(C([H])=O)N([H])C(=O)[C@@]([H])(C([H])([H])C(=O)N([H])C([H])([H])C([H])([H])c1c([H])c([H])c([H])c([H])c1[H])C([H])(C([H])([H])[H])C([H])([H])[H]


 29 29  0  0  0  0  0  0  0  0999 V2000
    8.9846   44.8345  130.0321 C   0  0  0  0  0  0  0  0  0  0  0  0
    8.4774   46.2203  129.8700 C   0  0  0  0  0  0  0  0  0  0  0  0
    7.5793   46.4641  128.9764 O   0  0  0  0  0  0  0  0  0  0  0  0
    8.8844   47.3316  130.6169 N   0  0  0  0  0  0  0  0  0  0  0  0
    9.6100   47.3111  131.3526 H   0  0  0  0  0  0  0  0  0  0  0  0
    8.3042   48.6659  130.3901 C   0  0  0  0  0  0  0  0  0  0  0  0
    9.2391   49.4094  129.5254 C   0  0  0  0  0  0  0  0  0  0  0  0
   10.2416   49.9299  130.0336 O   0  0  0  0  0  0  0  0  0  0  0  0
    8.1686   49.3722  131.7345 C   0  0  0  0  0  0  0  0  0  0  0  0
    9.0970   48.7916  132.7131 C   0  0  0  0  0  0  0  0  0  0  0  0
   10.4627   48.8905  132.5534 O   0  0  0  0  0  0  0  0  0  0  0  0
    8.6323   48.1848  133.7327 O   0  0  0  0  0  0  0  0  0  0  0  0
   11.0679   49.5162  133.0500 H   0  0  0  0  0  0  0  0  0  0  0  0
   10.6933   45.1339  128.2081 C   0  0  0  0  0  0  0  0  0  0  0  0
    9.4757   44.3760  128.6938 C   0  0  0  0  0  0  0  0  0  0  0  0
    9.8289   42.9161  128.6053 C   0  0  0  0  0  0  0  0  0  0  0  0
    8.0588   43.9154  130.7116 C   0  0  0  0  0  0  0  0  0  0  0  0
    8.2608   43.8513  132.2074 C   0  0  0  0  0  0  0  0  0  0  0  0
    8.5524   42.7547  132.7088 O   0  0  0  0  0  0  0  0  0  0  0  0
    8.1059   45.0125  132.9486 N   0  0  0  0  0  0  0  0  0  0  0  0
    7.8463   45.8793  132.3043 H   0  0  0  0  0  0  0  0  0  0  0  0
    8.2005   45.3530  134.2940 C   0  0  0  0  0  0  0  0  0  0  0  0
    9.5141   45.5245  134.9132 C   0  0  0  0  0  0  0  0  0  0  0  0
   10.7269   45.1630  134.2128 C   0  0  0  0  0  0  0  0  0  0  0  0
   11.1797   45.9680  133.1577 C   0  0  0  0  0  0  0  0  0  0  0  0
   12.2697   45.5957  132.4285 C   0  0  0  0  0  0  0  0  0  0  0  0
   12.9744   44.4265  132.6848 C   0  0  0  0  0  0  0  0  0  0  0  0
   12.5394   43.6309  133.7162 C   0  0  0  0  0  0  0  0  0  0  0  0
   11.4432   43.9867  134.4643 C   0  0  0  0  0  0  0  0  0  0  0  0
 14 15  1  0  0  0
 15 16  1  0  0  0
 15  1  1  0  0  0
  1 17  1  0  0  0
 17 18  1  0  0  0
 18 19  2  0  0  0
 18 20  1  0  0  0
 20 22  1  0  0  0
 22 23  1  0  0  0
 23 24  1  0  0  0
 24 25  2  0  0  0
 25 26  1  0  0  0
 26 27  2  0  0  0
 27 28  1  0  0  0
 28 29  2  0  0  0
  1  2  1  0  0  0
  2  3  2  0  0  0
  2  4  1  0  0  0
  4  6  1  0  0  0
  6  9  1  0  0  0
  9 10  1  0  0  0
 10 11  1  0  0  0
 10 12  2  0  0  0
  6  7  1  0  0  0
  7  8  2  0  0  0
 29 24  1  0  0  0
 20 21  1  0  0  0
  4  5  1  0  0  0
 11 13  1  0  0  0
M  END
> <minimizedAffinity>
-4.49205

> <CNNscore>
0.2109940797

> <CNNaffinity>
6.4894990921

> <CNN_VS>
1.3692458868

> <CNNaffinity_variance>
0.3670470119

$$$$
[H]OC(=O)C([H])([H])[C@@]([H])(C([H])=O)N([H])C(=O)[C@@]([H])(C([H])([H])C(=O)N([H])C([H])([H])C([H])([H])c1c([H])c([H])c([H])c([H])c1[H])C([H])(C([H])([H])[H])C([H])([H])[H]


 29 29  0  0  0  0  0  0  0  0999 V2000
    9.9303   45.1596  129.5641 C   0  0  0  0  0  0  0  0  0  0  0  0
    9.5793   46.5722  129.2720 C   0  0  0  0  0  0  0  0  0  0  0  0
    9.9806   47.1081  128.1692 O   0  0  0  0  0  0  0  0  0  0  0  0
    8.8260   47.4142  130.0980 N   0  0  0  0  0  0  0  0  0  0  0  0
    8.4513   47.1473  131.0234 H   0  0  0  0  0  0  0  0  0  0  0  0
    8.5161   48.7997  129.7071 C   0  0  0  0  0  0  0  0  0  0  0  0
    9.0541   49.6828  130.7583 C   0  0  0  0  0  0  0  0  0  0  0  0
    8.9035   49.3633  131.9456 O   0  0  0  0  0  0  0  0  0  0  0  0
    7.0015   48.9547  129.6254 C   0  0  0  0  0  0  0  0  0  0  0  0
    6.6317   50.3759  129.6336 C   0  0  0  0  0  0  0  0  0  0  0  0
    7.0331   51.2280  128.6271 O   0  0  0  0  0  0  0  0  0  0  0  0
    5.9235   50.8325  130.5896 O   0  0  0  0  0  0  0  0  0  0  0  0
    6.4577   51.5643  127.8785 H   0  0  0  0  0  0  0  0  0  0  0  0
   12.3528   44.4830  129.6645 C   0  0  0  0  0  0  0  0  0  0  0  0
   11.1690   44.8343  128.7880 C   0  0  0  0  0  0  0  0  0  0  0  0
   11.0305   43.7074  127.8007 C   0  0  0  0  0  0  0  0  0  0  0  0
    8.8220   44.2051  129.4097 C   0  0  0  0  0  0  0  0  0  0  0  0
    8.7748   43.1538  130.4936 C   0  0  0  0  0  0  0  0  0  0  0  0
    7.9802   42.2111  130.3559 O   0  0  0  0  0  0  0  0  0  0  0  0
    9.6122   43.2923  131.5898 N   0  0  0  0  0  0  0  0  0  0  0  0
   10.2415   44.2043  131.5130 H   0  0  0  0  0  0  0  0  0  0  0  0
    9.8559   42.5682  132.7521 C   0  0  0  0  0  0  0  0  0  0  0  0
   10.3083   43.2570  133.9602 C   0  0  0  0  0  0  0  0  0  0  0  0
   10.3142   44.7010  134.0431 C   0  0  0  0  0  0  0  0  0  0  0  0
    9.1754   45.3690  134.5157 C   0  0  0  0  0  0  0  0  0  0  0  0
    9.1292   46.7315  134.5170 C   0  0  0  0  0  0  0  0  0  0  0  0
   10.1826   47.5136  134.0611 C   0  0  0  0  0  0  0  0  0  0  0  0
   11.3029   46.8694  133.5962 C   0  0  0  0  0  0  0  0  0  0  0  0
   11.3711   45.4971  133.5859 C   0  0  0  0  0  0  0  0  0  0  0  0
 14 15  1  0  0  0
 15 16  1  0  0  0
 15  1  1  0  0  0
  1 17  1  0  0  0
 17 18  1  0  0  0
 18 19  2  0  0  0
 18 20  1  0  0  0
 20 22  1  0  0  0
 22 23  1  0  0  0
 23 24  1  0  0  0
 24 25  2  0  0  0
 25 26  1  0  0  0
 26 27  2  0  0  0
 27 28  1  0  0  0
 28 29  2  0  0  0
  1  2  1  0  0  0
  2  3  2  0  0  0
  2  4  1  0  0  0
  4  6  1  0  0  0
  6  9  1  0  0  0
  9 10  1  0  0  0
 10 11  1  0  0  0
 10 12  2  0  0  0
  6  7  1  0  0  0
  7  8  2  0  0  0
 29 24  1  0  0  0
 20 21  1  0  0  0
  4  5  1  0  0  0
 11 13  1  0  0  0
M  END
> <minimizedAffinity>
-6.97949

> <CNNscore>
0.1960949004

> <CNNaffinity>
6.6347284317

> <CNN_VS>
1.3010363579

> <CNNaffinity_variance>
0.2348072976

$$$$
[H]OC(=O)C([H])([H])[C@@]([H])(C([H])=O)N([H])C(=O)[C@@]([H])(C([H])([H])C(=O)N([H])C([H])([H])C([H])([H])c1c([H])c([H])c([H])c([H])c1[H])C([H])(C([H])([H])[H])C([H])([H])[H]


 29 29  0  0  0  0  0  0  0  0999 V2000
    9.5153   47.3849  130.5958 C   0  0  0  0  0  0  0  0  0  0  0  0
    8.3695   48.3068  130.3927 C   0  0  0  0  0  0  0  0  0  0  0  0
    7.6664   48.6748  131.4099 O   0  0  0  0  0  0  0  0  0  0  0  0
    7.9593   48.8421  129.1664 N   0  0  0  0  0  0  0  0  0  0  0  0
    8.3996   48.6292  128.2559 H   0  0  0  0  0  0  0  0  0  0  0  0
    6.8164   49.7660  129.0735 C   0  0  0  0  0  0  0  0  0  0  0  0
    7.1471   50.9551  129.8806 C   0  0  0  0  0  0  0  0  0  0  0  0
    6.9392   52.0798  129.4050 O   0  0  0  0  0  0  0  0  0  0  0  0
    5.5848   49.0755  129.6488 C   0  0  0  0  0  0  0  0  0  0  0  0
    5.4002   47.7579  129.0272 C   0  0  0  0  0  0  0  0  0  0  0  0
    4.7423   46.7400  129.6841 O   0  0  0  0  0  0  0  0  0  0  0  0
    5.8556   47.5496  127.8554 O   0  0  0  0  0  0  0  0  0  0  0  0
    3.8041   46.4362  129.5055 H   0  0  0  0  0  0  0  0  0  0  0  0
   10.0779   49.4422  131.9326 C   0  0  0  0  0  0  0  0  0  0  0  0
   10.4021   47.9927  131.6382 C   0  0  0  0  0  0  0  0  0  0  0  0
   10.4077   47.2870  132.9671 C   0  0  0  0  0  0  0  0  0  0  0  0
   10.1932   46.9636  129.3604 C   0  0  0  0  0  0  0  0  0  0  0  0
   10.2282   45.4652  129.1714 C   0  0  0  0  0  0  0  0  0  0  0  0
   11.1870   44.9788  128.5524 O   0  0  0  0  0  0  0  0  0  0  0  0
    9.1903   44.7062  129.6899 N   0  0  0  0  0  0  0  0  0  0  0  0
    8.4375   45.3387  130.2066 H   0  0  0  0  0  0  0  0  0  0  0  0
    8.8684   43.3534  129.7228 C   0  0  0  0  0  0  0  0  0  0  0  0
    9.3505   42.5146  130.8193 C   0  0  0  0  0  0  0  0  0  0  0  0
   10.2280   43.0444  131.8397 C   0  0  0  0  0  0  0  0  0  0  0  0
   11.6054   43.1264  131.5897 C   0  0  0  0  0  0  0  0  0  0  0  0
   12.4582   43.5386  132.5701 C   0  0  0  0  0  0  0  0  0  0  0  0
   12.0197   43.8915  133.8399 C   0  0  0  0  0  0  0  0  0  0  0  0
   10.6725   43.8150  134.0953 C   0  0  0  0  0  0  0  0  0  0  0  0
    9.7949   43.4022  133.1220 C   0  0  0  0  0  0  0  0  0  0  0  0
 14 15  1  0  0  0
 15 16  1  0  0  0
 15  1  1  0  0  0
  1 17  1  0  0  0
 17 18  1  0  0  0
 18 19  2  0  0  0
 18 20  1  0  0  0
 20 22  1  0  0  0
 22 23  1  0  0  0
 23 24  1  0  0  0
 24 25  2  0  0  0
 25 26  1  0  0  0
 26 27  2  0  0  0
 27 28  1  0  0  0
 28 29  2  0  0  0
  1  2  1  0  0  0
  2  3  2  0  0  0
  2  4  1  0  0  0
  4  6  1  0  0  0
  6  9  1  0  0  0
  9 10  1  0  0  0
 10 11  1  0  0  0
 10 12  2  0  0  0
  6  7  1  0  0  0
  7  8  2  0  0  0
 29 24  1  0  0  0
 20 21  1  0  0  0
  4  5  1  0  0  0
 11 13  1  0  0  0
M  END
> <minimizedAffinity>
-5.59239

> <CNNscore>
0.1774707884

> <CNNaffinity>
6.5426187515

> <CNN_VS>
1.1611237526

> <CNNaffinity_variance>
0.1535157114

$$$$
[H]OC(=O)C([H])([H])[C@@]([H])(C([H])=O)N([H])C(=O)[C@@]([H])(C([H])([H])C(=O)N([H])C([H])([H])C([H])([H])c1c([H])c([H])c([H])c([H])c1[H])C([H])(C([H])([H])[H])C([H])([H])[H]


 29 29  0  0  0  0  0  0  0  0999 V2000
    8.5691   43.8223  129.8318 C   0  0  0  0  0  0  0  0  0  0  0  0
    8.0219   45.1553  130.1893 C   0  0  0  0  0  0  0  0  0  0  0  0
    7.7614   45.4208  131.4246 O   0  0  0  0  0  0  0  0  0  0  0  0
    7.7529   46.1951  129.2921 N   0  0  0  0  0  0  0  0  0  0  0  0
    7.8832   46.1362  128.2686 H   0  0  0  0  0  0  0  0  0  0  0  0
    7.2261   47.4912  129.7516 C   0  0  0  0  0  0  0  0  0  0  0  0
    5.8073   47.5535  129.3547 C   0  0  0  0  0  0  0  0  0  0  0  0
    5.5222   47.5869  128.1497 O   0  0  0  0  0  0  0  0  0  0  0  0
    8.0064   48.6052  129.0625 C   0  0  0  0  0  0  0  0  0  0  0  0
    7.6907   49.9033  129.6723 C   0  0  0  0  0  0  0  0  0  0  0  0
    6.9983   50.8729  128.9788 O   0  0  0  0  0  0  0  0  0  0  0  0
    8.0623   50.1397  130.8681 O   0  0  0  0  0  0  0  0  0  0  0  0
    6.0318   51.1065  129.1037 H   0  0  0  0  0  0  0  0  0  0  0  0
    7.5665   41.9595  131.1959 C   0  0  0  0  0  0  0  0  0  0  0  0
    8.6467   43.0155  131.0910 C   0  0  0  0  0  0  0  0  0  0  0  0
    9.9522   42.3025  131.3171 C   0  0  0  0  0  0  0  0  0  0  0  0
    9.8016   43.8575  129.0299 C   0  0  0  0  0  0  0  0  0  0  0  0
   10.8218   44.8514  129.5335 C   0  0  0  0  0  0  0  0  0  0  0  0
   10.9211   45.9355  128.9387 O   0  0  0  0  0  0  0  0  0  0  0  0
   11.6006   44.5068  130.6274 N   0  0  0  0  0  0  0  0  0  0  0  0
   11.3493   43.4939  131.0076 H   0  0  0  0  0  0  0  0  0  0  0  0
   12.6107   45.1202  131.3612 C   0  0  0  0  0  0  0  0  0  0  0  0
   12.4157   45.3946  132.7842 C   0  0  0  0  0  0  0  0  0  0  0  0
   11.2136   46.0383  133.2667 C   0  0  0  0  0  0  0  0  0  0  0  0
   10.4538   45.4175  134.2685 C   0  0  0  0  0  0  0  0  0  0  0  0
    9.2720   45.9640  134.6723 C   0  0  0  0  0  0  0  0  0  0  0  0
    8.7681   47.1376  134.1265 C   0  0  0  0  0  0  0  0  0  0  0  0
    9.5045   47.7539  133.1447 C   0  0  0  0  0  0  0  0  0  0  0  0
   10.6985   47.2208  132.7225 C   0  0  0  0  0  0  0  0  0  0  0  0
 14 15  1  0  0  0
 15 16  1  0  0  0
 15  1  1  0  0  0
  1 17  1  0  0  0
 17 18  1  0  0  0
 18 19  2  0  0  0
 18 20  1  0  0  0
 20 22  1  0  0  0
 22 23  1  0  0  0
 23 24  1  0  0  0
 24 25  2  0  0  0
 25 26  1  0  0  0
 26 27  2  0  0  0
 27 28  1  0  0  0
 28 29  2  0  0  0
  1  2  1  0  0  0
  2  3  2  0  0  0
  2  4  1  0  0  0
  4  6  1  0  0  0
  6  9  1  0  0  0
  9 10  1  0  0  0
 10 11  1  0  0  0
 10 12  2  0  0  0
  6  7  1  0  0  0
  7  8  2  0  0  0
 29 24  1  0  0  0
 20 21  1  0  0  0
  4  5  1  0  0  0
 11 13  1  0  0  0
M  END
> <minimizedAffinity>
-7.11692

> <CNNscore>
0.1324730515

> <CNNaffinity>
6.4970550537

> <CNN_VS>
0.8606846929

> <CNNaffinity_variance>
0.2120783776

$$$$
[H]OC(=O)C([H])([H])[C@@]([H])(C([H])=O)N([H])C(=O)[C@@]([H])(C([H])([H])C(=O)N([H])C([H])([H])C([H])([H])c1c([H])c([H])c([H])c([H])c1[H])C([H])(C([H])([H])[H])C([H])([H])[H]


 29 29  0  0  0  0  0  0  0  0999 V2000
    9.7153   47.0489  130.5720 C   0  0  0  0  0  0  0  0  0  0  0  0
    8.2712   47.3881  130.5123 C   0  0  0  0  0  0  0  0  0  0  0  0
    7.4937   47.0131  131.4711 O   0  0  0  0  0  0  0  0  0  0  0  0
    7.6419   48.1032  129.4870 N   0  0  0  0  0  0  0  0  0  0  0  0
    8.1164   48.4532  128.6382 H   0  0  0  0  0  0  0  0  0  0  0  0
    6.2012   48.4048  129.5309 C   0  0  0  0  0  0  0  0  0  0  0  0
    5.4918   47.2384  128.9735 C   0  0  0  0  0  0  0  0  0  0  0  0
    4.5511   46.7468  129.6121 O   0  0  0  0  0  0  0  0  0  0  0  0
    5.9351   49.6338  128.6687 C   0  0  0  0  0  0  0  0  0  0  0  0
    6.5879   50.8153  129.2471 C   0  0  0  0  0  0  0  0  0  0  0  0
    6.9522   51.8897  128.4639 O   0  0  0  0  0  0  0  0  0  0  0  0
    6.8218   50.8507  130.4992 O   0  0  0  0  0  0  0  0  0  0  0  0
    6.4676   52.7650  128.4062 H   0  0  0  0  0  0  0  0  0  0  0  0
    9.9129   49.5393  130.8810 C   0  0  0  0  0  0  0  0  0  0  0  0
   10.4108   48.1674  131.2847 C   0  0  0  0  0  0  0  0  0  0  0  0
   10.3319   48.1189  132.7865 C   0  0  0  0  0  0  0  0  0  0  0  0
   10.3095   46.6567  129.2850 C   0  0  0  0  0  0  0  0  0  0  0  0
   10.6903   45.1965  129.2155 C   0  0  0  0  0  0  0  0  0  0  0  0
   11.7995   44.9062  128.7417 O   0  0  0  0  0  0  0  0  0  0  0  0
    9.7861   44.2519  129.6760 N   0  0  0  0  0  0  0  0  0  0  0  0
    8.8573   44.7253  130.0593 H   0  0  0  0  0  0  0  0  0  0  0  0
    9.7627   42.8648  129.7771 C   0  0  0  0  0  0  0  0  0  0  0  0
   10.2196   42.2143  131.0045 C   0  0  0  0  0  0  0  0  0  0  0  0
   10.6589   42.9878  132.1450 C   0  0  0  0  0  0  0  0  0  0  0  0
   12.0314   43.1718  132.3658 C   0  0  0  0  0  0  0  0  0  0  0  0
   12.4665   43.8209  133.4828 C   0  0  0  0  0  0  0  0  0  0  0  0
   11.5949   44.3235  134.4403 C   0  0  0  0  0  0  0  0  0  0  0  0
   10.2484   44.1489  134.2337 C   0  0  0  0  0  0  0  0  0  0  0  0
    9.7876   43.4978  133.1149 C   0  0  0  0  0  0  0  0  0  0  0  0
 14 15  1  0  0  0
 15 16  1  0  0  0
 15  1  1  0  0  0
  1 17  1  0  0  0
 17 18  1  0  0  0
 18 19  2  0  0  0
 18 20  1  0  0  0
 20 22  1  0  0  0
 22 23  1  0  0  0
 23 24  1  0  0  0
 24 25  2  0  0  0
 25 26  1  0  0  0
 26 27  2  0  0  0
 27 28  1  0  0  0
 28 29  2  0  0  0
  1  2  1  0  0  0
  2  3  2  0  0  0
  2  4  1  0  0  0
  4  6  1  0  0  0
  6  9  1  0  0  0
  9 10  1  0  0  0
 10 11  1  0  0  0
 10 12  2  0  0  0
  6  7  1  0  0  0
  7  8  2  0  0  0
 29 24  1  0  0  0
 20 21  1  0  0  0
  4  5  1  0  0  0
 11 13  1  0  0  0
M  END
> <minimizedAffinity>
-5.12042

> <CNNscore>
0.1224684417

> <CNNaffinity>
6.4331703186

> <CNN_VS>
0.7878603339

> <CNNaffinity_variance>
0.1033660620

$$$$
[H]OC(=O)C([H])([H])[C@@]([H])(C([H])=O)N([H])C(=O)[C@@]([H])(C([H])([H])C(=O)N([H])C([H])([H])C([H])([H])c1c([H])c([H])c([H])c([H])c1[H])C([H])(C([H])([H])[H])C([H])([H])[H]


 29 29  0  0  0  0  0  0  0  0999 V2000
    9.7987   43.8262  130.0594 C   0  0  0  0  0  0  0  0  0  0  0  0
    9.6402   43.7438  131.5332 C   0  0  0  0  0  0  0  0  0  0  0  0
    9.1542   42.6698  132.0575 O   0  0  0  0  0  0  0  0  0  0  0  0
    9.9798   44.7465  132.4486 N   0  0  0  0  0  0  0  0  0  0  0  0
   10.3574   45.6734  132.1911 H   0  0  0  0  0  0  0  0  0  0  0  0
    9.7999   44.5585  133.8980 C   0  0  0  0  0  0  0  0  0  0  0  0
    8.9999   45.6947  134.3916 C   0  0  0  0  0  0  0  0  0  0  0  0
    9.5833   46.6721  134.8801 O   0  0  0  0  0  0  0  0  0  0  0  0
   11.1719   44.5633  134.5630 C   0  0  0  0  0  0  0  0  0  0  0  0
   12.2311   44.4621  133.5507 C   0  0  0  0  0  0  0  0  0  0  0  0
   12.7878   43.2470  133.2131 O   0  0  0  0  0  0  0  0  0  0  0  0
   12.6444   45.5184  132.9700 O   0  0  0  0  0  0  0  0  0  0  0  0
   12.5905   42.7214  132.3829 H   0  0  0  0  0  0  0  0  0  0  0  0
   12.2904   44.1614  129.9358 C   0  0  0  0  0  0  0  0  0  0  0  0
   10.9176   44.7814  129.7802 C   0  0  0  0  0  0  0  0  0  0  0  0
   10.8964   45.4134  128.4149 C   0  0  0  0  0  0  0  0  0  0  0  0
    8.5534   44.0818  129.3195 C   0  0  0  0  0  0  0  0  0  0  0  0
    7.8070   45.3052  129.7977 C   0  0  0  0  0  0  0  0  0  0  0  0
    7.4066   45.3207  130.9717 O   0  0  0  0  0  0  0  0  0  0  0  0
    7.5990   46.3465  128.9064 N   0  0  0  0  0  0  0  0  0  0  0  0
    8.0394   46.1284  127.9103 H   0  0  0  0  0  0  0  0  0  0  0  0
    6.9802   47.5911  128.9590 C   0  0  0  0  0  0  0  0  0  0  0  0
    7.7875   48.8028  129.0951 C   0  0  0  0  0  0  0  0  0  0  0  0
    8.6351   49.0143  130.2479 C   0  0  0  0  0  0  0  0  0  0  0  0
    9.5556   48.0232  130.6179 C   0  0  0  0  0  0  0  0  0  0  0  0
   10.2991   48.1650  131.7516 C   0  0  0  0  0  0  0  0  0  0  0  0
   10.1882   49.2727  132.5823 C   0  0  0  0  0  0  0  0  0  0  0  0
    9.2898   50.2494  132.2290 C   0  0  0  0  0  0  0  0  0  0  0  0
    8.5302   50.1272  131.0907 C   0  0  0  0  0  0  0  0  0  0  0  0
 14 15  1  0  0  0
 15 16  1  0  0  0
 15  1  1  0  0  0
  1 17  1  0  0  0
 17 18  1  0  0  0
 18 19  2  0  0  0
 18 20  1  0  0  0
 20 22  1  0  0  0
 22 23  1  0  0  0
 23 24  1  0  0  0
 24 25  2  0  0  0
 25 26  1  0  0  0
 26 27  2  0  0  0
 27 28  1  0  0  0
 28 29  2  0  0  0
  1  2  1  0  0  0
  2  3  2  0  0  0
  2  4  1  0  0  0
  4  6  1  0  0  0
  6  9  1  0  0  0
  9 10  1  0  0  0
 10 11  1  0  0  0
 10 12  2  0  0  0
  6  7  1  0  0  0
  7  8  2  0  0  0
 29 24  1  0  0  0
 20 21  1  0  0  0
  4  5  1  0  0  0
 11 13  1  0  0  0
M  END
> <minimizedAffinity>
-7.53486

> <CNNscore>
0.1165032759

> <CNNaffinity>
6.2821378708

> <CNN_VS>
0.7318896651

> <CNNaffinity_variance>
0.5565884709

$$$$
[H]OC(=O)C([H])([H])[C@@]([H])(C([H])=O)N([H])C(=O)[C@@]([H])(C([H])([H])C(=O)N([H])C([H])([H])C([H])([H])c1c([H])c([H])c([H])c([H])c1[H])C([H])(C([H])([H])[H])C([H])([H])[H]


 29 29  0  0  0  0  0  0  0  0999 V2000
    8.3355   46.4063  132.8639 C   0  0  0  0  0  0  0  0  0  0  0  0
    8.7277   46.9915  131.5571 C   0  0  0  0  0  0  0  0  0  0  0  0
    9.7395   46.5022  130.9237 O   0  0  0  0  0  0  0  0  0  0  0  0
    8.0872   48.0568  130.9140 N   0  0  0  0  0  0  0  0  0  0  0  0
    7.2786   48.5737  131.2975 H   0  0  0  0  0  0  0  0  0  0  0  0
    8.5449   48.5531  129.6053 C   0  0  0  0  0  0  0  0  0  0  0  0
    9.4993   49.6478  129.8607 C   0  0  0  0  0  0  0  0  0  0  0  0
    9.5871   50.1123  131.0057 O   0  0  0  0  0  0  0  0  0  0  0  0
    7.3394   49.0851  128.8383 C   0  0  0  0  0  0  0  0  0  0  0  0
    6.8950   50.3640  129.4073 C   0  0  0  0  0  0  0  0  0  0  0  0
    6.4136   50.4476  130.6963 O   0  0  0  0  0  0  0  0  0  0  0  0
    6.9565   51.4199  128.6965 O   0  0  0  0  0  0  0  0  0  0  0  0
    6.9142   50.8047  131.4877 H   0  0  0  0  0  0  0  0  0  0  0  0
   10.3672   47.5886  133.7644 C   0  0  0  0  0  0  0  0  0  0  0  0
    9.5740   46.3003  133.6990 C   0  0  0  0  0  0  0  0  0  0  0  0
    9.3524   45.8727  135.1244 C   0  0  0  0  0  0  0  0  0  0  0  0
    7.5312   45.1783  132.7722 C   0  0  0  0  0  0  0  0  0  0  0  0
    8.3188   43.9731  132.3147 C   0  0  0  0  0  0  0  0  0  0  0  0
    8.5887   43.1011  133.1548 O   0  0  0  0  0  0  0  0  0  0  0  0
    8.7076   43.8993  130.9861 N   0  0  0  0  0  0  0  0  0  0  0  0
    8.3621   44.7823  130.4075 H   0  0  0  0  0  0  0  0  0  0  0  0
    9.4170   42.9912  130.2070 C   0  0  0  0  0  0  0  0  0  0  0  0
   10.7945   42.6479  130.5578 C   0  0  0  0  0  0  0  0  0  0  0  0
   11.5520   43.4481  131.4948 C   0  0  0  0  0  0  0  0  0  0  0  0
   11.6360   43.0449  132.8353 C   0  0  0  0  0  0  0  0  0  0  0  0
   12.2694   43.8316  133.7508 C   0  0  0  0  0  0  0  0  0  0  0  0
   12.8523   45.0465  133.4139 C   0  0  0  0  0  0  0  0  0  0  0  0
   12.7760   45.4507  132.1036 C   0  0  0  0  0  0  0  0  0  0  0  0
   12.1425   44.6736  131.1641 C   0  0  0  0  0  0  0  0  0  0  0  0
 14 15  1  0  0  0
 15 16  1  0  0  0
 15  1  1  0  0  0
  1 17  1  0  0  0
 17 18  1  0  0  0
 18 19  2  0  0  0
 18 20  1  0  0  0
 20 22  1  0  0  0
 22 23  1  0  0  0
 23 24  1  0  0  0
 24 25  2  0  0  0
 25 26  1  0  0  0
 26 27  2  0  0  0
 27 28  1  0  0  0
 28 29  2  0  0  0
  1  2  1  0  0  0
  2  3  2  0  0  0
  2  4  1  0  0  0
  4  6  1  0  0  0
  6  9  1  0  0  0
  9 10  1  0  0  0
 10 11  1  0  0  0
 10 12  2  0  0  0
  6  7  1  0  0  0
  7  8  2  0  0  0
 29 24  1  0  0  0
 20 21  1  0  0  0
  4  5  1  0  0  0
 11 13  1  0  0  0
M  END
> <minimizedAffinity>
-5.91859

> <CNNscore>
0.1149091795

> <CNNaffinity>
6.5843749046

> <CNN_VS>
0.7566050887

> <CNNaffinity_variance>
0.0986583605

$$$$
[H]OC(=O)C([H])([H])[C@@]([H])(C([H])=O)N([H])C(=O)[C@@]([H])(C([H])([H])C(=O)N([H])C([H])([H])C([H])([H])c1c([H])c([H])c([H])c([H])c1[H])C([H])(C([H])([H])[H])C([H])([H])[H]


 29 29  0  0  0  0  0  0  0  0999 V2000
    9.3534   46.1198  133.3241 C   0  0  0  0  0  0  0  0  0  0  0  0
    8.5192   46.7282  132.2573 C   0  0  0  0  0  0  0  0  0  0  0  0
    7.4853   46.0906  131.8227 O   0  0  0  0  0  0  0  0  0  0  0  0
    8.7437   47.9707  131.6537 N   0  0  0  0  0  0  0  0  0  0  0  0
    9.5394   48.5937  131.8703 H   0  0  0  0  0  0  0  0  0  0  0  0
    7.8433   48.4949  130.6131 C   0  0  0  0  0  0  0  0  0  0  0  0
    8.2266   47.8577  129.3397 C   0  0  0  0  0  0  0  0  0  0  0  0
    7.3702   47.2317  128.7003 O   0  0  0  0  0  0  0  0  0  0  0  0
    8.0380   50.0040  130.5166 C   0  0  0  0  0  0  0  0  0  0  0  0
    6.9023   50.6227  129.8208 C   0  0  0  0  0  0  0  0  0  0  0  0
    7.0793   51.3499  128.6632 O   0  0  0  0  0  0  0  0  0  0  0  0
    5.7275   50.4841  130.2947 O   0  0  0  0  0  0  0  0  0  0  0  0
    6.8736   51.0343  127.7345 H   0  0  0  0  0  0  0  0  0  0  0  0
   11.2230   47.1213  131.9685 C   0  0  0  0  0  0  0  0  0  0  0  0
   10.7303   45.9322  132.7663 C   0  0  0  0  0  0  0  0  0  0  0  0
   11.8001   45.6382  133.7827 C   0  0  0  0  0  0  0  0  0  0  0  0
    8.7659   44.9324  133.9632 C   0  0  0  0  0  0  0  0  0  0  0  0
    9.0212   43.6504  133.2059 C   0  0  0  0  0  0  0  0  0  0  0  0
    9.8519   42.8552  133.6712 O   0  0  0  0  0  0  0  0  0  0  0  0
    8.3243   43.4245  132.0289 N   0  0  0  0  0  0  0  0  0  0  0  0
    7.6316   44.2606  131.7950 H   0  0  0  0  0  0  0  0  0  0  0  0
    8.2803   42.4092  131.0791 C   0  0  0  0  0  0  0  0  0  0  0  0
    8.8253   42.6367  129.7413 C   0  0  0  0  0  0  0  0  0  0  0  0
   10.0472   43.3855  129.5461 C   0  0  0  0  0  0  0  0  0  0  0  0
   11.1246   43.1872  130.4215 C   0  0  0  0  0  0  0  0  0  0  0  0
   12.2506   43.9472  130.3082 C   0  0  0  0  0  0  0  0  0  0  0  0
   12.3889   44.9357  129.3423 C   0  0  0  0  0  0  0  0  0  0  0  0
   11.3397   45.1380  128.4796 C   0  0  0  0  0  0  0  0  0  0  0  0
   10.1954   44.3835  128.5756 C   0  0  0  0  0  0  0  0  0  0  0  0
 14 15  1  0  0  0
 15 16  1  0  0  0
 15  1  1  0  0  0
  1 17  1  0  0  0
 17 18  1  0  0  0
 18 19  2  0  0  0
 18 20  1  0  0  0
 20 22  1  0  0  0
 22 23  1  0  0  0
 23 24  1  0  0  0
 24 25  2  0  0  0
 25 26  1  0  0  0
 26 27  2  0  0  0
 27 28  1  0  0  0
 28 29  2  0  0  0
  1  2  1  0  0  0
  2  3  2  0  0  0
  2  4  1  0  0  0
  4  6  1  0  0  0
  6  9  1  0  0  0
  9 10  1  0  0  0
 10 11  1  0  0  0
 10 12  2  0  0  0
  6  7  1  0  0  0
  7  8  2  0  0  0
 29 24  1  0  0  0
 20 21  1  0  0  0
  4  5  1  0  0  0
 11 13  1  0  0  0
M  END
> <minimizedAffinity>
-7.01525

> <CNNscore>
0.1137807369

> <CNNaffinity>
6.3832159042

> <CNN_VS>
0.7262870073

> <CNNaffinity_variance>
0.3405039907

$$$$
[H]OC(=O)C([H])([H])C([H])([H])[C@@]([H])(C(=O)N([H])[C@]([H])(C(=O)N([H])[C@]([H])(C(=O)N1C([H])([H])C([H])([H])C([H])([H])[C@@]1([H])C(=O)N([H])[C@]([H])(C(=O)N([H])[H])C([H])(C([H])([H])[H])C([H])([H])[H])C([H])([H])C(=O)O[H])C([H])([H])C(=O)O[H])N([H])C(=O)[C@@]([H])(N([H])C(=O)[C@@]1([H])N(C([H])([H])[H])C([H])([H])C([H])([H])C1([H])[H])C([H])([H])C(=O)O[H]


 67 68  0  0  0  0  0  0  0  0999 V2000
    9.6661   48.9291  130.5594 C   0  0  0  0  0  0  0  0  0  0  0  0
    8.6467   49.9822  130.4095 N   0  0  0  0  0  0  0  0  0  0  0  0
    7.9312   50.1294  129.2223 C   0  0  0  0  0  0  0  0  0  0  0  0
    8.1952   49.3206  128.2644 O   0  0  0  0  0  0  0  0  0  0  0  0
    8.4910   50.6221  131.2125 H   0  0  0  0  0  0  0  0  0  0  0  0
    6.9005   51.1332  128.9607 C   0  0  0  0  0  0  0  0  0  0  0  0
    7.1760   51.8266  127.7021 N   0  0  0  0  0  0  0  0  0  0  0  0
    7.2038   53.2250  127.6368 C   0  0  0  0  0  0  0  0  0  0  0  0
    6.9723   53.8623  128.7293 O   0  0  0  0  0  0  0  0  0  0  0  0
    7.3506   51.2565  126.8651 H   0  0  0  0  0  0  0  0  0  0  0  0
    7.4800   53.9941  126.4129 C   0  0  0  0  0  0  0  0  0  0  0  0
    6.2486   54.2535  125.7060 N   0  0  0  0  0  0  0  0  0  0  0  0
    5.6427   55.5141  125.6239 C   0  0  0  0  0  0  0  0  0  0  0  0
    6.1937   56.5027  126.2009 O   0  0  0  0  0  0  0  0  0  0  0  0
    5.7854   53.4263  125.2208 H   0  0  0  0  0  0  0  0  0  0  0  0
    4.3802   55.6950  124.8770 C   0  0  0  0  0  0  0  0  0  0  0  0
    3.6255   56.9184  125.3213 C   0  0  0  0  0  0  0  0  0  0  0  0
    2.6141   56.3877  126.2952 C   0  0  0  0  0  0  0  0  0  0  0  0
    2.5220   54.9135  126.0502 C   0  0  0  0  0  0  0  0  0  0  0  0
    3.5278   54.5658  125.0930 N   0  0  0  0  0  0  0  0  0  0  0  0
    2.9897   54.1954  123.7907 C   0  0  0  0  0  0  0  0  0  0  0  0
    8.2592   55.2588  126.6780 C   0  0  0  0  0  0  0  0  0  0  0  0
    8.8700   55.8530  125.4926 C   0  0  0  0  0  0  0  0  0  0  0  0
    8.9236   55.1958  124.2723 O   0  0  0  0  0  0  0  0  0  0  0  0
    9.3849   57.0094  125.5206 O   0  0  0  0  0  0  0  0  0  0  0  0
    9.7808   55.1013  123.7235 H   0  0  0  0  0  0  0  0  0  0  0  0
    5.4975   50.5759  128.8178 C   0  0  0  0  0  0  0  0  0  0  0  0
    5.1476   49.5370  129.8379 C   0  0  0  0  0  0  0  0  0  0  0  0
    5.3682   48.1498  129.2548 C   0  0  0  0  0  0  0  0  0  0  0  0
    5.9195   48.0015  127.9912 O   0  0  0  0  0  0  0  0  0  0  0  0
    5.0663   47.1143  129.8852 O   0  0  0  0  0  0  0  0  0  0  0  0
    6.8792   47.7028  127.9061 H   0  0  0  0  0  0  0  0  0  0  0  0
    8.9983   46.6481  129.5699 N   0  0  0  0  0  0  0  0  0  0  0  0
    8.9718   47.6141  130.5880 C   0  0  0  0  0  0  0  0  0  0  0  0
    8.3042   47.3540  131.6237 O   0  0  0  0  0  0  0  0  0  0  0  0
    9.5403   46.8583  128.7088 H   0  0  0  0  0  0  0  0  0  0  0  0
    8.2938   45.3727  129.6841 C   0  0  0  0  0  0  0  0  0  0  0  0
    9.1023   42.6161  132.4062 C   0  0  0  0  0  0  0  0  0  0  0  0
    9.3730   41.3782  131.6066 C   0  0  0  0  0  0  0  0  0  0  0  0
    7.9652   41.2204  130.9438 C   0  0  0  0  0  0  0  0  0  0  0  0
    7.2694   42.5673  131.1876 C   0  0  0  0  0  0  0  0  0  0  0  0
    8.4587   43.4107  131.3302 N   0  0  0  0  0  0  0  0  0  0  0  0
    8.9595   44.5283  130.6771 C   0  0  0  0  0  0  0  0  0  0  0  0
   10.1728   44.9014  130.9669 O   0  0  0  0  0  0  0  0  0  0  0  0
   11.4669   42.8976  133.2927 N   0  0  0  0  0  0  0  0  0  0  0  0
   10.0815   43.2290  133.2159 C   0  0  0  0  0  0  0  0  0  0  0  0
    9.7178   44.1971  133.9853 O   0  0  0  0  0  0  0  0  0  0  0  0
   11.8610   42.1541  132.7196 H   0  0  0  0  0  0  0  0  0  0  0  0
   12.3436   43.6277  134.1977 C   0  0  0  0  0  0  0  0  0  0  0  0
   11.6227   43.9816  135.4344 C   0  0  0  0  0  0  0  0  0  0  0  0
   10.9662   43.0595  136.2766 N   0  0  0  0  0  0  0  0  0  0  0  0
   11.5515   45.2043  135.8248 O   0  0  0  0  0  0  0  0  0  0  0  0
   11.2590   42.7424  137.2104 H   0  0  0  0  0  0  0  0  0  0  0  0
   10.0582   42.6400  135.9086 H   0  0  0  0  0  0  0  0  0  0  0  0
   12.1740   46.0409  133.8219 C   0  0  0  0  0  0  0  0  0  0  0  0
   12.9664   44.8191  133.4957 C   0  0  0  0  0  0  0  0  0  0  0  0
   13.0924   44.5860  131.9975 C   0  0  0  0  0  0  0  0  0  0  0  0
    8.1489   44.6971  128.3688 C   0  0  0  0  0  0  0  0  0  0  0  0
    9.4668   44.2202  127.8419 C   0  0  0  0  0  0  0  0  0  0  0  0
   10.2965   45.1245  127.2198 O   0  0  0  0  0  0  0  0  0  0  0  0
    9.8220   43.0381  127.9553 O   0  0  0  0  0  0  0  0  0  0  0  0
   10.8933   45.7181  127.8219 H   0  0  0  0  0  0  0  0  0  0  0  0
   10.5262   49.1319  131.7510 C   0  0  0  0  0  0  0  0  0  0  0  0
    9.7970   49.3768  133.0076 C   0  0  0  0  0  0  0  0  0  0  0  0
    9.7385   48.3775  133.9741 O   0  0  0  0  0  0  0  0  0  0  0  0
    9.1976   50.4440  133.3086 O   0  0  0  0  0  0  0  0  0  0  0  0
    8.8376   47.9564  134.2064 H   0  0  0  0  0  0  0  0  0  0  0  0
 55 56  1  0  0  0
 56 57  1  0  0  0
 56 49  1  0  0  0
 49 45  1  0  0  0
 45 46  1  0  0  0
 46 47  2  0  0  0
 46 38  1  0  0  0
 38 39  1  0  0  0
 39 40  1  0  0  0
 40 41  1  0  0  0
 41 42  1  0  0  0
 42 43  1  0  0  0
 43 44  2  0  0  0
 43 37  1  0  0  0
 37 58  1  0  0  0
 58 59  1  0  0  0
 59 60  1  0  0  0
 59 61  2  0  0  0
 37 33  1  0  0  0
 33 34  1  0  0  0
 34 35  2  0  0  0
 34  1  1  0  0  0
  1 63  1  0  0  0
 63 64  1  0  0  0
 64 65  1  0  0  0
 64 66  2  0  0  0
  1  2  1  0  0  0
  2  3  1  0  0  0
  3  4  2  0  0  0
  3  6  1  0  0  0
  6 27  1  0  0  0
 27 28  1  0  0  0
 28 29  1  0  0  0
 29 30  1  0  0  0
 29 31  2  0  0  0
  6  7  1  0  0  0
  7  8  1  0  0  0
  8  9  2  0  0  0
  8 11  1  0  0  0
 11 22  1  0  0  0
 22 23  1  0  0  0
 23 24  1  0  0  0
 23 25  2  0  0  0
 11 12  1  0  0  0
 12 13  1  0  0  0
 13 14  2  0  0  0
 13 16  1  0  0  0
 16 17  1  0  0  0
 17 18  1  0  0  0
 18 19  1  0  0  0
 19 20  1  0  0  0
 20 21  1  0  0  0
 49 50  1  0  0  0
 50 51  1  0  0  0
 50 52  2  0  0  0
 42 38  1  0  0  0
 20 16  1  0  0  0
 45 48  1  0  0  0
 60 62  1  0  0  0
 33 36  1  0  0  0
 65 67  1  0  0  0
  2  5  1  0  0  0
 30 32  1  0  0  0
  7 10  1  0  0  0
 24 26  1  0  0  0
 12 15  1  0  0  0
 51 53  1  0  0  0
 51 54  1  0  0  0
M  END
> <minimizedAffinity>
4.56029

> <CNNscore>
0.4578294158

> <CNNaffinity>
7.4351477623

> <CNN_VS>
3.4040293694

> <CNNaffinity_variance>
1.4794979095

$$$$
[H]OC(=O)C([H])([H])C([H])([H])[C@@]([H])(C(=O)N([H])[C@]([H])(C(=O)N([H])[C@]([H])(C(=O)N1C([H])([H])C([H])([H])C([H])([H])[C@@]1([H])C(=O)N([H])[C@]([H])(C(=O)N([H])[H])C([H])(C([H])([H])[H])C([H])([H])[H])C([H])([H])C(=O)O[H])C([H])([H])C(=O)O[H])N([H])C(=O)[C@@]([H])(N([H])C(=O)[C@@]1([H])N(C([H])([H])[H])C([H])([H])C([H])([H])C1([H])[H])C([H])([H])C(=O)O[H]


 67 68  0  0  0  0  0  0  0  0999 V2000
    8.2903   48.8811  128.8364 C   0  0  0  0  0  0  0  0  0  0  0  0
    6.8740   48.6750  129.1856 N   0  0  0  0  0  0  0  0  0  0  0  0
    6.0072   49.7543  129.3492 C   0  0  0  0  0  0  0  0  0  0  0  0
    6.4866   50.9318  129.1908 O   0  0  0  0  0  0  0  0  0  0  0  0
    6.5469   47.6989  129.3225 H   0  0  0  0  0  0  0  0  0  0  0  0
    4.5883   49.6706  129.6935 C   0  0  0  0  0  0  0  0  0  0  0  0
    3.8699   50.8321  129.1685 N   0  0  0  0  0  0  0  0  0  0  0  0
    3.3995   50.8572  127.8499 C   0  0  0  0  0  0  0  0  0  0  0  0
    3.6335   49.8182  127.1297 O   0  0  0  0  0  0  0  0  0  0  0  0
    3.7185   51.6307  129.7972 H   0  0  0  0  0  0  0  0  0  0  0  0
    2.6639   51.9827  127.2518 C   0  0  0  0  0  0  0  0  0  0  0  0
    3.5815   52.8644  126.5707 N   0  0  0  0  0  0  0  0  0  0  0  0
    3.3043   54.2048  126.2715 C   0  0  0  0  0  0  0  0  0  0  0  0
    2.1819   54.6937  126.6106 O   0  0  0  0  0  0  0  0  0  0  0  0
    4.5234   52.4569  126.2862 H   0  0  0  0  0  0  0  0  0  0  0  0
    4.3016   55.0414  125.5716 C   0  0  0  0  0  0  0  0  0  0  0  0
    4.1533   56.5017  125.9023 C   0  0  0  0  0  0  0  0  0  0  0  0
    3.3462   57.0522  124.7626 C   0  0  0  0  0  0  0  0  0  0  0  0
    3.4404   56.0509  123.6534 C   0  0  0  0  0  0  0  0  0  0  0  0
    4.1352   54.9052  124.1567 N   0  0  0  0  0  0  0  0  0  0  0  0
    5.4692   54.7395  123.5947 C   0  0  0  0  0  0  0  0  0  0  0  0
    1.5355   51.5359  126.3551 C   0  0  0  0  0  0  0  0  0  0  0  0
    0.2159   51.5740  126.9784 C   0  0  0  0  0  0  0  0  0  0  0  0
   -0.2850   52.7108  127.5954 O   0  0  0  0  0  0  0  0  0  0  0  0
   -0.5440   50.5611  126.9854 O   0  0  0  0  0  0  0  0  0  0  0  0
   -0.6888   52.7074  128.5345 H   0  0  0  0  0  0  0  0  0  0  0  0
    3.8711   48.4604  129.1272 C   0  0  0  0  0  0  0  0  0  0  0  0
    4.1921   47.1777  129.8300 C   0  0  0  0  0  0  0  0  0  0  0  0
    2.9328   46.3353  129.9623 C   0  0  0  0  0  0  0  0  0  0  0  0
    2.6478   45.3514  129.0277 O   0  0  0  0  0  0  0  0  0  0  0  0
    2.1268   46.4980  130.9028 O   0  0  0  0  0  0  0  0  0  0  0  0
    2.7847   44.3836  129.2763 H   0  0  0  0  0  0  0  0  0  0  0  0
    8.3627   46.3273  129.1547 N   0  0  0  0  0  0  0  0  0  0  0  0
    8.9707   47.5588  128.8648 C   0  0  0  0  0  0  0  0  0  0  0  0
   10.2026   47.5554  128.6025 O   0  0  0  0  0  0  0  0  0  0  0  0
    7.3485   46.3225  129.3800 H   0  0  0  0  0  0  0  0  0  0  0  0
    9.1055   45.0686  129.1503 C   0  0  0  0  0  0  0  0  0  0  0  0
   10.0241   43.3413  132.5906 C   0  0  0  0  0  0  0  0  0  0  0  0
   11.2469   42.5326  132.2809 C   0  0  0  0  0  0  0  0  0  0  0  0
   10.6184   41.5588  131.2309 C   0  0  0  0  0  0  0  0  0  0  0  0
    9.2734   42.2017  130.8630 C   0  0  0  0  0  0  0  0  0  0  0  0
    9.5931   43.5929  131.1925 N   0  0  0  0  0  0  0  0  0  0  0  0
    9.6157   44.7919  130.4940 C   0  0  0  0  0  0  0  0  0  0  0  0
   10.1485   45.8227  131.0848 O   0  0  0  0  0  0  0  0  0  0  0  0
   11.1311   45.2663  133.8258 N   0  0  0  0  0  0  0  0  0  0  0  0
   10.0324   44.4141  133.5066 C   0  0  0  0  0  0  0  0  0  0  0  0
    8.9444   44.6794  134.1448 O   0  0  0  0  0  0  0  0  0  0  0  0
   12.0348   45.1495  133.3716 H   0  0  0  0  0  0  0  0  0  0  0  0
   10.9714   46.3259  134.8118 C   0  0  0  0  0  0  0  0  0  0  0  0
   10.0742   45.8853  135.8961 C   0  0  0  0  0  0  0  0  0  0  0  0
   10.3021   44.7678  136.7267 N   0  0  0  0  0  0  0  0  0  0  0  0
    8.9889   46.5256  136.1500 O   0  0  0  0  0  0  0  0  0  0  0  0
   10.5744   44.7673  137.7187 H   0  0  0  0  0  0  0  0  0  0  0  0
   10.1769   43.8082  136.2802 H   0  0  0  0  0  0  0  0  0  0  0  0
    9.0402   47.6611  134.1180 C   0  0  0  0  0  0  0  0  0  0  0  0
   10.5316   47.6157  134.1462 C   0  0  0  0  0  0  0  0  0  0  0  0
   11.1480   47.7736  132.7643 C   0  0  0  0  0  0  0  0  0  0  0  0
   10.1777   45.0586  128.1219 C   0  0  0  0  0  0  0  0  0  0  0  0
   10.5383   43.6650  127.7098 C   0  0  0  0  0  0  0  0  0  0  0  0
   11.8350   43.4017  127.3327 O   0  0  0  0  0  0  0  0  0  0  0  0
    9.6996   42.7523  127.7033 O   0  0  0  0  0  0  0  0  0  0  0  0
   12.5245   43.2244  128.0839 H   0  0  0  0  0  0  0  0  0  0  0  0
    8.9578   49.8710  129.7169 C   0  0  0  0  0  0  0  0  0  0  0  0
    8.8385   49.5972  131.1597 C   0  0  0  0  0  0  0  0  0  0  0  0
    9.4320   50.4616  132.0744 O   0  0  0  0  0  0  0  0  0  0  0  0
    8.2270   48.6203  131.6700 O   0  0  0  0  0  0  0  0  0  0  0  0
   10.1977   50.1239  132.6599 H   0  0  0  0  0  0  0  0  0  0  0  0
 55 56  1  0  0  0
 56 57  1  0  0  0
 56 49  1  0  0  0
 49 45  1  0  0  0
 45 46  1  0  0  0
 46 47  2  0  0  0
 46 38  1  0  0  0
 38 39  1  0  0  0
 39 40  1  0  0  0
 40 41  1  0  0  0
 41 42  1  0  0  0
 42 43  1  0  0  0
 43 44  2  0  0  0
 43 37  1  0  0  0
 37 58  1  0  0  0
 58 59  1  0  0  0
 59 60  1  0  0  0
 59 61  2  0  0  0
 37 33  1  0  0  0
 33 34  1  0  0  0
 34 35  2  0  0  0
 34  1  1  0  0  0
  1 63  1  0  0  0
 63 64  1  0  0  0
 64 65  1  0  0  0
 64 66  2  0  0  0
  1  2  1  0  0  0
  2  3  1  0  0  0
  3  4  2  0  0  0
  3  6  1  0  0  0
  6 27  1  0  0  0
 27 28  1  0  0  0
 28 29  1  0  0  0
 29 30  1  0  0  0
 29 31  2  0  0  0
  6  7  1  0  0  0
  7  8  1  0  0  0
  8  9  2  0  0  0
  8 11  1  0  0  0
 11 22  1  0  0  0
 22 23  1  0  0  0
 23 24  1  0  0  0
 23 25  2  0  0  0
 11 12  1  0  0  0
 12 13  1  0  0  0
 13 14  2  0  0  0
 13 16  1  0  0  0
 16 17  1  0  0  0
 17 18  1  0  0  0
 18 19  1  0  0  0
 19 20  1  0  0  0
 20 21  1  0  0  0
 49 50  1  0  0  0
 50 51  1  0  0  0
 50 52  2  0  0  0
 42 38  1  0  0  0
 20 16  1  0  0  0
 45 48  1  0  0  0
 60 62  1  0  0  0
 33 36  1  0  0  0
 65 67  1  0  0  0
  2  5  1  0  0  0
 30 32  1  0  0  0
  7 10  1  0  0  0
 24 26  1  0  0  0
 12 15  1  0  0  0
 51 53  1  0  0  0
 51 54  1  0  0  0
M  END
> <minimizedAffinity>
13.77809

> <CNNscore>
0.4105869234

> <CNNaffinity>
7.3269491196

> <CNN_VS>
3.0083494186

> <CNNaffinity_variance>
0.7481884360

$$$$
[H]OC(=O)C([H])([H])C([H])([H])[C@@]([H])(C(=O)N([H])[C@]([H])(C(=O)N([H])[C@]([H])(C(=O)N1C([H])([H])C([H])([H])C([H])([H])[C@@]1([H])C(=O)N([H])[C@]([H])(C(=O)N([H])[H])C([H])(C([H])([H])[H])C([H])([H])[H])C([H])([H])C(=O)O[H])C([H])([H])C(=O)O[H])N([H])C(=O)[C@@]([H])(N([H])C(=O)[C@@]1([H])N(C([H])([H])[H])C([H])([H])C([H])([H])C1([H])[H])C([H])([H])C(=O)O[H]


 67 68  0  0  0  0  0  0  0  0999 V2000
   10.0444   49.2634  130.2821 C   0  0  0  0  0  0  0  0  0  0  0  0
    9.1412   50.4179  130.1336 N   0  0  0  0  0  0  0  0  0  0  0  0
    8.2642   50.5132  129.0544 C   0  0  0  0  0  0  0  0  0  0  0  0
    8.2751   49.5647  128.1933 O   0  0  0  0  0  0  0  0  0  0  0  0
    9.1919   51.1667  130.8513 H   0  0  0  0  0  0  0  0  0  0  0  0
    7.3262   51.6071  128.8053 C   0  0  0  0  0  0  0  0  0  0  0  0
    7.8438   52.4907  127.7603 N   0  0  0  0  0  0  0  0  0  0  0  0
    7.0463   53.4975  127.2027 C   0  0  0  0  0  0  0  0  0  0  0  0
    5.8450   53.6011  127.6492 O   0  0  0  0  0  0  0  0  0  0  0  0
    8.8128   52.3523  127.4473 H   0  0  0  0  0  0  0  0  0  0  0  0
    7.4957   54.4288  126.1556 C   0  0  0  0  0  0  0  0  0  0  0  0
    6.4701   54.5711  125.1499 N   0  0  0  0  0  0  0  0  0  0  0  0
    5.4750   55.5569  125.1794 C   0  0  0  0  0  0  0  0  0  0  0  0
    5.4553   56.3856  126.1421 O   0  0  0  0  0  0  0  0  0  0  0  0
    6.4852   53.8779  124.3416 H   0  0  0  0  0  0  0  0  0  0  0  0
    4.4609   55.6348  124.1070 C   0  0  0  0  0  0  0  0  0  0  0  0
    3.1462   56.1720  124.6038 C   0  0  0  0  0  0  0  0  0  0  0  0
    2.3270   54.9419  124.8664 C   0  0  0  0  0  0  0  0  0  0  0  0
    2.9919   53.8233  124.1259 C   0  0  0  0  0  0  0  0  0  0  0  0
    4.2160   54.3266  123.5810 N   0  0  0  0  0  0  0  0  0  0  0  0
    4.1973   54.4581  122.1301 C   0  0  0  0  0  0  0  0  0  0  0  0
    7.9387   55.7618  126.7067 C   0  0  0  0  0  0  0  0  0  0  0  0
    8.8499   56.5025  125.8394 C   0  0  0  0  0  0  0  0  0  0  0  0
    8.7596   56.4637  124.4558 O   0  0  0  0  0  0  0  0  0  0  0  0
    9.7761   57.2248  126.3127 O   0  0  0  0  0  0  0  0  0  0  0  0
    9.5589   56.2765  123.8467 H   0  0  0  0  0  0  0  0  0  0  0  0
    5.9570   51.1681  128.3232 C   0  0  0  0  0  0  0  0  0  0  0  0
    5.5615   49.7973  128.7780 C   0  0  0  0  0  0  0  0  0  0  0  0
    4.6339   49.9021  129.9787 C   0  0  0  0  0  0  0  0  0  0  0  0
    5.0706   50.5024  131.1499 O   0  0  0  0  0  0  0  0  0  0  0  0
    3.4661   49.4593  129.9499 O   0  0  0  0  0  0  0  0  0  0  0  0
    4.7430   51.4284  131.3788 H   0  0  0  0  0  0  0  0  0  0  0  0
    7.8132   48.0253  130.6243 N   0  0  0  0  0  0  0  0  0  0  0  0
    9.2143   48.0578  130.5460 C   0  0  0  0  0  0  0  0  0  0  0  0
    9.8346   46.9742  130.7115 O   0  0  0  0  0  0  0  0  0  0  0  0
    7.2944   48.9163  130.4968 H   0  0  0  0  0  0  0  0  0  0  0  0
    7.0730   46.7908  130.8778 C   0  0  0  0  0  0  0  0  0  0  0  0
    9.2000   45.1994  133.8114 C   0  0  0  0  0  0  0  0  0  0  0  0
    8.1726   44.6706  134.7653 C   0  0  0  0  0  0  0  0  0  0  0  0
    7.4892   46.0262  135.1414 C   0  0  0  0  0  0  0  0  0  0  0  0
    7.9924   47.0198  134.0844 C   0  0  0  0  0  0  0  0  0  0  0  0
    8.3005   46.0694  133.0130 N   0  0  0  0  0  0  0  0  0  0  0  0
    7.8813   45.8911  131.7020 C   0  0  0  0  0  0  0  0  0  0  0  0
    8.2411   44.7945  131.0990 O   0  0  0  0  0  0  0  0  0  0  0  0
    9.8957   43.0273  132.6911 N   0  0  0  0  0  0  0  0  0  0  0  0
   10.1163   44.3637  133.1389 C   0  0  0  0  0  0  0  0  0  0  0  0
   11.2927   44.8266  132.8876 O   0  0  0  0  0  0  0  0  0  0  0  0
    8.9973   42.5690  132.8305 H   0  0  0  0  0  0  0  0  0  0  0  0
   10.9614   42.2964  132.0199 C   0  0  0  0  0  0  0  0  0  0  0  0
   12.2770   42.8377  132.4085 C   0  0  0  0  0  0  0  0  0  0  0  0
   12.7008   43.0489  133.7376 N   0  0  0  0  0  0  0  0  0  0  0  0
   13.1431   43.1603  131.5152 O   0  0  0  0  0  0  0  0  0  0  0  0
   13.3980   42.5098  134.2680 H   0  0  0  0  0  0  0  0  0  0  0  0
   12.2509   43.8630  134.2580 H   0  0  0  0  0  0  0  0  0  0  0  0
   11.2318   43.5520  129.9357 C   0  0  0  0  0  0  0  0  0  0  0  0
   10.7334   42.2729  130.5207 C   0  0  0  0  0  0  0  0  0  0  0  0
    9.2762   42.0012  130.1780 C   0  0  0  0  0  0  0  0  0  0  0  0
    6.6128   46.1492  129.6192 C   0  0  0  0  0  0  0  0  0  0  0  0
    5.3863   46.8131  129.0743 C   0  0  0  0  0  0  0  0  0  0  0  0
    4.2096   46.7095  129.7798 O   0  0  0  0  0  0  0  0  0  0  0  0
    5.4105   47.4493  128.0108 O   0  0  0  0  0  0  0  0  0  0  0  0
    4.0644   47.3669  130.5660 H   0  0  0  0  0  0  0  0  0  0  0  0
   11.0725   49.4734  131.3306 C   0  0  0  0  0  0  0  0  0  0  0  0
   10.6215   49.1965  132.7056 C   0  0  0  0  0  0  0  0  0  0  0  0
   11.0635   48.0485  133.3557 O   0  0  0  0  0  0  0  0  0  0  0  0
    9.8453   49.9250  133.3807 O   0  0  0  0  0  0  0  0  0  0  0  0
   10.3902   47.3216  133.6036 H   0  0  0  0  0  0  0  0  0  0  0  0
 55 56  1  0  0  0
 56 57  1  0  0  0
 56 49  1  0  0  0
 49 45  1  0  0  0
 45 46  1  0  0  0
 46 47  2  0  0  0
 46 38  1  0  0  0
 38 39  1  0  0  0
 39 40  1  0  0  0
 40 41  1  0  0  0
 41 42  1  0  0  0
 42 43  1  0  0  0
 43 44  2  0  0  0
 43 37  1  0  0  0
 37 58  1  0  0  0
 58 59  1  0  0  0
 59 60  1  0  0  0
 59 61  2  0  0  0
 37 33  1  0  0  0
 33 34  1  0  0  0
 34 35  2  0  0  0
 34  1  1  0  0  0
  1 63  1  0  0  0
 63 64  1  0  0  0
 64 65  1  0  0  0
 64 66  2  0  0  0
  1  2  1  0  0  0
  2  3  1  0  0  0
  3  4  2  0  0  0
  3  6  1  0  0  0
  6 27  1  0  0  0
 27 28  1  0  0  0
 28 29  1  0  0  0
 29 30  1  0  0  0
 29 31  2  0  0  0
  6  7  1  0  0  0
  7  8  1  0  0  0
  8  9  2  0  0  0
  8 11  1  0  0  0
 11 22  1  0  0  0
 22 23  1  0  0  0
 23 24  1  0  0  0
 23 25  2  0  0  0
 11 12  1  0  0  0
 12 13  1  0  0  0
 13 14  2  0  0  0
 13 16  1  0  0  0
 16 17  1  0  0  0
 17 18  1  0  0  0
 18 19  1  0  0  0
 19 20  1  0  0  0
 20 21  1  0  0  0
 49 50  1  0  0  0
 50 51  1  0  0  0
 50 52  2  0  0  0
 42 38  1  0  0  0
 20 16  1  0  0  0
 45 48  1  0  0  0
 60 62  1  0  0  0
 33 36  1  0  0  0
 65 67  1  0  0  0
  2  5  1  0  0  0
 30 32  1  0  0  0
  7 10  1  0  0  0
 24 26  1  0  0  0
 12 15  1  0  0  0
 51 53  1  0  0  0
 51 54  1  0  0  0
M  END
> <minimizedAffinity>
8.79310

> <CNNscore>
0.3743713200

> <CNNaffinity>
7.0514550209

> <CNN_VS>
2.6398625374

> <CNNaffinity_variance>
0.2700264454

$$$$
[H]OC(=O)C([H])([H])C([H])([H])[C@@]([H])(C(=O)N([H])[C@]([H])(C(=O)N([H])[C@]([H])(C(=O)N1C([H])([H])C([H])([H])C([H])([H])[C@@]1([H])C(=O)N([H])[C@]([H])(C(=O)N([H])[H])C([H])(C([H])([H])[H])C([H])([H])[H])C([H])([H])C(=O)O[H])C([H])([H])C(=O)O[H])N([H])C(=O)[C@@]([H])(N([H])C(=O)[C@@]1([H])N(C([H])([H])[H])C([H])([H])C([H])([H])C1([H])[H])C([H])([H])C(=O)O[H]


 67 68  0  0  0  0  0  0  0  0999 V2000
    8.5342   47.2895  129.1115 C   0  0  0  0  0  0  0  0  0  0  0  0
    7.5775   48.3904  128.9035 N   0  0  0  0  0  0  0  0  0  0  0  0
    7.9474   49.7172  129.1171 C   0  0  0  0  0  0  0  0  0  0  0  0
    9.1466   49.9453  129.5059 O   0  0  0  0  0  0  0  0  0  0  0  0
    6.6128   48.1433  128.6087 H   0  0  0  0  0  0  0  0  0  0  0  0
    7.0865   50.8865  128.9430 C   0  0  0  0  0  0  0  0  0  0  0  0
    7.4314   51.5906  127.7077 N   0  0  0  0  0  0  0  0  0  0  0  0
    7.2314   52.9706  127.5808 C   0  0  0  0  0  0  0  0  0  0  0  0
    6.7291   53.5805  128.5952 O   0  0  0  0  0  0  0  0  0  0  0  0
    7.8274   51.0423  126.9340 H   0  0  0  0  0  0  0  0  0  0  0  0
    7.5587   53.7501  126.3763 C   0  0  0  0  0  0  0  0  0  0  0  0
    6.3468   54.2242  125.7521 N   0  0  0  0  0  0  0  0  0  0  0  0
    6.1625   54.3142  124.3661 C   0  0  0  0  0  0  0  0  0  0  0  0
    7.1079   53.9632  123.5935 O   0  0  0  0  0  0  0  0  0  0  0  0
    5.5526   54.5183  126.3978 H   0  0  0  0  0  0  0  0  0  0  0  0
    4.8872   54.8099  123.8071 C   0  0  0  0  0  0  0  0  0  0  0  0
    4.1283   55.6623  124.7875 C   0  0  0  0  0  0  0  0  0  0  0  0
    3.1366   54.7163  125.3999 C   0  0  0  0  0  0  0  0  0  0  0  0
    3.0542   53.5357  124.4828 C   0  0  0  0  0  0  0  0  0  0  0  0
    4.0485   53.7014  123.4666 N   0  0  0  0  0  0  0  0  0  0  0  0
    3.4941   53.9879  122.1501 C   0  0  0  0  0  0  0  0  0  0  0  0
    8.5322   54.8704  126.6490 C   0  0  0  0  0  0  0  0  0  0  0  0
    8.2335   56.1157  125.9481 C   0  0  0  0  0  0  0  0  0  0  0  0
    7.2776   57.0142  126.3983 O   0  0  0  0  0  0  0  0  0  0  0  0
    8.8394   56.4401  124.8846 O   0  0  0  0  0  0  0  0  0  0  0  0
    6.5437   57.3990  125.7998 H   0  0  0  0  0  0  0  0  0  0  0  0
    5.6075   50.5710  128.8303 C   0  0  0  0  0  0  0  0  0  0  0  0
    5.1303   49.5331  129.7984 C   0  0  0  0  0  0  0  0  0  0  0  0
    5.1300   48.1676  129.1288 C   0  0  0  0  0  0  0  0  0  0  0  0
    5.2621   48.0632  127.7524 O   0  0  0  0  0  0  0  0  0  0  0  0
    5.0138   47.1114  129.7858 O   0  0  0  0  0  0  0  0  0  0  0  0
    6.1421   47.7580  127.3653 H   0  0  0  0  0  0  0  0  0  0  0  0
   10.1071   47.8216  131.0790 N   0  0  0  0  0  0  0  0  0  0  0  0
    8.9258   47.2821  130.5463 C   0  0  0  0  0  0  0  0  0  0  0  0
    8.1170   46.7417  131.3464 O   0  0  0  0  0  0  0  0  0  0  0  0
   10.7833   48.2621  130.4246 H   0  0  0  0  0  0  0  0  0  0  0  0
   10.4100   47.7810  132.5082 C   0  0  0  0  0  0  0  0  0  0  0  0
   11.9238   44.2333  133.3942 C   0  0  0  0  0  0  0  0  0  0  0  0
   12.5183   44.4174  134.7572 C   0  0  0  0  0  0  0  0  0  0  0  0
   13.5945   45.4929  134.3950 C   0  0  0  0  0  0  0  0  0  0  0  0
   13.1906   45.9901  132.9995 C   0  0  0  0  0  0  0  0  0  0  0  0
   11.7623   45.6688  133.0525 N   0  0  0  0  0  0  0  0  0  0  0  0
   10.5835   46.3923  132.9366 C   0  0  0  0  0  0  0  0  0  0  0  0
    9.4719   45.7836  133.2358 O   0  0  0  0  0  0  0  0  0  0  0  0
    9.9118   43.4156  132.0753 N   0  0  0  0  0  0  0  0  0  0  0  0
   10.8559   43.3466  133.1426 C   0  0  0  0  0  0  0  0  0  0  0  0
   10.6839   42.3550  133.9480 O   0  0  0  0  0  0  0  0  0  0  0  0
    9.9628   44.1544  131.3767 H   0  0  0  0  0  0  0  0  0  0  0  0
    8.8555   42.4188  131.9688 C   0  0  0  0  0  0  0  0  0  0  0  0
    8.4987   42.2000  130.5548 C   0  0  0  0  0  0  0  0  0  0  0  0
    9.1115   42.8451  129.4598 N   0  0  0  0  0  0  0  0  0  0  0  0
    7.5679   41.3736  130.2337 O   0  0  0  0  0  0  0  0  0  0  0  0
    9.7582   42.4372  128.7717 H   0  0  0  0  0  0  0  0  0  0  0  0
    8.8792   43.8762  129.3228 H   0  0  0  0  0  0  0  0  0  0  0  0
    7.9673   44.0908  133.5210 C   0  0  0  0  0  0  0  0  0  0  0  0
    7.6738   42.7947  132.8420 C   0  0  0  0  0  0  0  0  0  0  0  0
    7.3248   41.6858  133.8234 C   0  0  0  0  0  0  0  0  0  0  0  0
    9.3905   48.5013  133.3139 C   0  0  0  0  0  0  0  0  0  0  0  0
    8.9644   49.7775  132.6569 C   0  0  0  0  0  0  0  0  0  0  0  0
    7.7949   49.7897  131.9323 O   0  0  0  0  0  0  0  0  0  0  0  0
    9.6377   50.8138  132.7534 O   0  0  0  0  0  0  0  0  0  0  0  0
    6.9099   49.9093  132.4553 H   0  0  0  0  0  0  0  0  0  0  0  0
    9.7108   47.3774  128.2124 C   0  0  0  0  0  0  0  0  0  0  0  0
   10.6016   46.2042  128.2404 C   0  0  0  0  0  0  0  0  0  0  0  0
   10.2652   45.0684  127.5105 O   0  0  0  0  0  0  0  0  0  0  0  0
   11.6825   46.1225  128.8837 O   0  0  0  0  0  0  0  0  0  0  0  0
   10.0544   44.1993  128.0037 H   0  0  0  0  0  0  0  0  0  0  0  0
 55 56  1  0  0  0
 56 57  1  0  0  0
 56 49  1  0  0  0
 49 45  1  0  0  0
 45 46  1  0  0  0
 46 47  2  0  0  0
 46 38  1  0  0  0
 38 39  1  0  0  0
 39 40  1  0  0  0
 40 41  1  0  0  0
 41 42  1  0  0  0
 42 43  1  0  0  0
 43 44  2  0  0  0
 43 37  1  0  0  0
 37 58  1  0  0  0
 58 59  1  0  0  0
 59 60  1  0  0  0
 59 61  2  0  0  0
 37 33  1  0  0  0
 33 34  1  0  0  0
 34 35  2  0  0  0
 34  1  1  0  0  0
  1 63  1  0  0  0
 63 64  1  0  0  0
 64 65  1  0  0  0
 64 66  2  0  0  0
  1  2  1  0  0  0
  2  3  1  0  0  0
  3  4  2  0  0  0
  3  6  1  0  0  0
  6 27  1  0  0  0
 27 28  1  0  0  0
 28 29  1  0  0  0
 29 30  1  0  0  0
 29 31  2  0  0  0
  6  7  1  0  0  0
  7  8  1  0  0  0
  8  9  2  0  0  0
  8 11  1  0  0  0
 11 22  1  0  0  0
 22 23  1  0  0  0
 23 24  1  0  0  0
 23 25  2  0  0  0
 11 12  1  0  0  0
 12 13  1  0  0  0
 13 14  2  0  0  0
 13 16  1  0  0  0
 16 17  1  0  0  0
 17 18  1  0  0  0
 18 19  1  0  0  0
 19 20  1  0  0  0
 20 21  1  0  0  0
 49 50  1  0  0  0
 50 51  1  0  0  0
 50 52  2  0  0  0
 42 38  1  0  0  0
 20 16  1  0  0  0
 45 48  1  0  0  0
 60 62  1  0  0  0
 33 36  1  0  0  0
 65 67  1  0  0  0
  2  5  1  0  0  0
 30 32  1  0  0  0
  7 10  1  0  0  0
 24 26  1  0  0  0
 12 15  1  0  0  0
 51 53  1  0  0  0
 51 54  1  0  0  0
M  END
> <minimizedAffinity>
3.32654

> <CNNscore>
0.3643551171

> <CNNaffinity>
7.2873201370

> <CNN_VS>
2.6551723480

> <CNNaffinity_variance>
0.2472787797

$$$$
[H]OC(=O)C([H])([H])C([H])([H])[C@@]([H])(C(=O)N([H])[C@]([H])(C(=O)N([H])[C@]([H])(C(=O)N1C([H])([H])C([H])([H])C([H])([H])[C@@]1([H])C(=O)N([H])[C@]([H])(C(=O)N([H])[H])C([H])(C([H])([H])[H])C([H])([H])[H])C([H])([H])C(=O)O[H])C([H])([H])C(=O)O[H])N([H])C(=O)[C@@]([H])(N([H])C(=O)[C@@]1([H])N(C([H])([H])[H])C([H])([H])C([H])([H])C1([H])[H])C([H])([H])C(=O)O[H]


 67 68  0  0  0  0  0  0  0  0999 V2000
    8.4001   47.0044  128.3040 C   0  0  0  0  0  0  0  0  0  0  0  0
    7.5382   48.1951  128.4028 N   0  0  0  0  0  0  0  0  0  0  0  0
    7.9909   49.3645  129.0115 C   0  0  0  0  0  0  0  0  0  0  0  0
    9.1806   49.3657  129.4868 O   0  0  0  0  0  0  0  0  0  0  0  0
    6.5756   48.1283  128.0187 H   0  0  0  0  0  0  0  0  0  0  0  0
    7.2274   50.6022  129.1658 C   0  0  0  0  0  0  0  0  0  0  0  0
    7.2886   51.3923  127.9359 N   0  0  0  0  0  0  0  0  0  0  0  0
    7.1290   52.7832  127.9601 C   0  0  0  0  0  0  0  0  0  0  0  0
    6.9233   53.3245  129.1081 O   0  0  0  0  0  0  0  0  0  0  0  0
    7.4540   50.8963  127.0512 H   0  0  0  0  0  0  0  0  0  0  0  0
    7.1844   53.6465  126.7696 C   0  0  0  0  0  0  0  0  0  0  0  0
    5.8526   53.8670  126.2588 N   0  0  0  0  0  0  0  0  0  0  0  0
    5.4900   54.9608  125.4619 C   0  0  0  0  0  0  0  0  0  0  0  0
    6.3720   55.8237  125.1596 O   0  0  0  0  0  0  0  0  0  0  0  0
    5.1118   53.1444  126.5103 H   0  0  0  0  0  0  0  0  0  0  0  0
    4.1018   55.1116  124.9775 C   0  0  0  0  0  0  0  0  0  0  0  0
    3.8701   56.4437  124.3175 C   0  0  0  0  0  0  0  0  0  0  0  0
    3.2571   57.2838  125.3999 C   0  0  0  0  0  0  0  0  0  0  0  0
    2.7650   56.3336  126.4472 C   0  0  0  0  0  0  0  0  0  0  0  0
    3.1950   55.0184  126.0808 N   0  0  0  0  0  0  0  0  0  0  0  0
    2.1077   54.1479  125.6534 C   0  0  0  0  0  0  0  0  0  0  0  0
    7.9186   54.9413  127.0174 C   0  0  0  0  0  0  0  0  0  0  0  0
    8.7666   55.3773  125.9120 C   0  0  0  0  0  0  0  0  0  0  0  0
    9.0761   54.5538  124.8396 O   0  0  0  0  0  0  0  0  0  0  0  0
    9.2654   56.5407  125.8775 O   0  0  0  0  0  0  0  0  0  0  0  0
   10.0298   54.4072  124.5022 H   0  0  0  0  0  0  0  0  0  0  0  0
    5.7506   50.4028  129.4465 C   0  0  0  0  0  0  0  0  0  0  0  0
    5.4412   49.1669  130.2333 C   0  0  0  0  0  0  0  0  0  0  0  0
    4.9769   48.0635  129.2953 C   0  0  0  0  0  0  0  0  0  0  0  0
    5.0761   48.2251  127.9217 O   0  0  0  0  0  0  0  0  0  0  0  0
    4.4996   46.9916  129.7240 O   0  0  0  0  0  0  0  0  0  0  0  0
    5.8006   47.7339  127.4206 H   0  0  0  0  0  0  0  0  0  0  0  0
    8.3940   44.7499  129.5472 N   0  0  0  0  0  0  0  0  0  0  0  0
    8.1018   46.1202  129.4621 C   0  0  0  0  0  0  0  0  0  0  0  0
    7.5374   46.6602  130.4502 O   0  0  0  0  0  0  0  0  0  0  0  0
    8.8524   44.2951  128.7332 H   0  0  0  0  0  0  0  0  0  0  0  0
    8.0751   43.9547  130.7312 C   0  0  0  0  0  0  0  0  0  0  0  0
    9.8387   44.3275  134.2545 C   0  0  0  0  0  0  0  0  0  0  0  0
   11.1314   43.5860  134.0988 C   0  0  0  0  0  0  0  0  0  0  0  0
   10.5473   42.1602  133.8303 C   0  0  0  0  0  0  0  0  0  0  0  0
    9.0624   42.4016  133.5229 C   0  0  0  0  0  0  0  0  0  0  0  0
    9.1535   43.7865  133.0539 N   0  0  0  0  0  0  0  0  0  0  0  0
    8.8333   44.4533  131.8796 C   0  0  0  0  0  0  0  0  0  0  0  0
    9.2416   45.6835  131.7555 O   0  0  0  0  0  0  0  0  0  0  0  0
    9.9992   46.7699  133.5722 N   0  0  0  0  0  0  0  0  0  0  0  0
    9.7819   45.7143  134.5069 C   0  0  0  0  0  0  0  0  0  0  0  0
    9.5084   46.1055  135.7042 O   0  0  0  0  0  0  0  0  0  0  0  0
   10.2125   46.5712  132.5967 H   0  0  0  0  0  0  0  0  0  0  0  0
    9.9146   48.1578  134.0049 C   0  0  0  0  0  0  0  0  0  0  0  0
    8.5042   48.5703  134.1289 C   0  0  0  0  0  0  0  0  0  0  0  0
    7.6541   48.8711  133.0437 N   0  0  0  0  0  0  0  0  0  0  0  0
    7.9533   48.6832  135.2848 O   0  0  0  0  0  0  0  0  0  0  0  0
    6.8691   48.3106  132.6863 H   0  0  0  0  0  0  0  0  0  0  0  0
    7.8407   49.7867  132.5312 H   0  0  0  0  0  0  0  0  0  0  0  0
   10.0448   50.3732  132.9711 C   0  0  0  0  0  0  0  0  0  0  0  0
   10.7315   49.0539  133.0940 C   0  0  0  0  0  0  0  0  0  0  0  0
   10.9882   48.3997  131.7447 C   0  0  0  0  0  0  0  0  0  0  0  0
    8.2843   42.5022  130.4992 C   0  0  0  0  0  0  0  0  0  0  0  0
    9.6042   42.2290  129.8470 C   0  0  0  0  0  0  0  0  0  0  0  0
   10.6446   41.7754  130.6246 O   0  0  0  0  0  0  0  0  0  0  0  0
    9.7756   42.4006  128.6314 O   0  0  0  0  0  0  0  0  0  0  0  0
   10.6790   40.7622  130.8331 H   0  0  0  0  0  0  0  0  0  0  0  0
    9.8410   47.3473  128.2204 C   0  0  0  0  0  0  0  0  0  0  0  0
   10.7609   46.2170  128.4370 C   0  0  0  0  0  0  0  0  0  0  0  0
   11.3513   46.0409  129.6845 O   0  0  0  0  0  0  0  0  0  0  0  0
   11.0789   45.3575  127.5716 O   0  0  0  0  0  0  0  0  0  0  0  0
   12.3640   46.1347  129.7780 H   0  0  0  0  0  0  0  0  0  0  0  0
 55 56  1  0  0  0
 56 57  1  0  0  0
 56 49  1  0  0  0
 49 45  1  0  0  0
 45 46  1  0  0  0
 46 47  2  0  0  0
 46 38  1  0  0  0
 38 39  1  0  0  0
 39 40  1  0  0  0
 40 41  1  0  0  0
 41 42  1  0  0  0
 42 43  1  0  0  0
 43 44  2  0  0  0
 43 37  1  0  0  0
 37 58  1  0  0  0
 58 59  1  0  0  0
 59 60  1  0  0  0
 59 61  2  0  0  0
 37 33  1  0  0  0
 33 34  1  0  0  0
 34 35  2  0  0  0
 34  1  1  0  0  0
  1 63  1  0  0  0
 63 64  1  0  0  0
 64 65  1  0  0  0
 64 66  2  0  0  0
  1  2  1  0  0  0
  2  3  1  0  0  0
  3  4  2  0  0  0
  3  6  1  0  0  0
  6 27  1  0  0  0
 27 28  1  0  0  0
 28 29  1  0  0  0
 29 30  1  0  0  0
 29 31  2  0  0  0
  6  7  1  0  0  0
  7  8  1  0  0  0
  8  9  2  0  0  0
  8 11  1  0  0  0
 11 22  1  0  0  0
 22 23  1  0  0  0
 23 24  1  0  0  0
 23 25  2  0  0  0
 11 12  1  0  0  0
 12 13  1  0  0  0
 13 14  2  0  0  0
 13 16  1  0  0  0
 16 17  1  0  0  0
 17 18  1  0  0  0
 18 19  1  0  0  0
 19 20  1  0  0  0
 20 21  1  0  0  0
 49 50  1  0  0  0
 50 51  1  0  0  0
 50 52  2  0  0  0
 42 38  1  0  0  0
 20 16  1  0  0  0
 45 48  1  0  0  0
 60 62  1  0  0  0
 33 36  1  0  0  0
 65 67  1  0  0  0
  2  5  1  0  0  0
 30 32  1  0  0  0
  7 10  1  0  0  0
 24 26  1  0  0  0
 12 15  1  0  0  0
 51 53  1  0  0  0
 51 54  1  0  0  0
M  END
> <minimizedAffinity>
3.87774

> <CNNscore>
0.3616462052

> <CNNaffinity>
7.3790268898

> <CNN_VS>
2.6685969830

> <CNNaffinity_variance>
0.5017429590

$$$$
[H]OC(=O)C([H])([H])C([H])([H])[C@@]([H])(C(=O)N([H])[C@]([H])(C(=O)N([H])[C@]([H])(C(=O)N1C([H])([H])C([H])([H])C([H])([H])[C@@]1([H])C(=O)N([H])[C@]([H])(C(=O)N([H])[H])C([H])(C([H])([H])[H])C([H])([H])[H])C([H])([H])C(=O)O[H])C([H])([H])C(=O)O[H])N([H])C(=O)[C@@]([H])(N([H])C(=O)[C@@]1([H])N(C([H])([H])[H])C([H])([H])C([H])([H])C1([H])[H])C([H])([H])C(=O)O[H]


 67 68  0  0  0  0  0  0  0  0999 V2000
    9.1916   48.2187  130.6738 C   0  0  0  0  0  0  0  0  0  0  0  0
    8.4497   48.7312  129.5087 N   0  0  0  0  0  0  0  0  0  0  0  0
    7.7445   49.9318  129.5741 C   0  0  0  0  0  0  0  0  0  0  0  0
    7.7595   50.5710  130.6843 O   0  0  0  0  0  0  0  0  0  0  0  0
    8.4557   48.1592  128.6420 H   0  0  0  0  0  0  0  0  0  0  0  0
    6.9760   50.5356  128.4863 C   0  0  0  0  0  0  0  0  0  0  0  0
    7.6295   51.7599  128.0228 N   0  0  0  0  0  0  0  0  0  0  0  0
    6.8812   52.8807  127.6425 C   0  0  0  0  0  0  0  0  0  0  0  0
    5.6018   52.7774  127.7167 O   0  0  0  0  0  0  0  0  0  0  0  0
    8.6564   51.7747  127.9856 H   0  0  0  0  0  0  0  0  0  0  0  0
    7.4636   54.1481  127.1735 C   0  0  0  0  0  0  0  0  0  0  0  0
    7.3494   54.2410  125.7376 N   0  0  0  0  0  0  0  0  0  0  0  0
    7.8513   55.3065  124.9788 C   0  0  0  0  0  0  0  0  0  0  0  0
    8.4457   56.2602  125.5712 O   0  0  0  0  0  0  0  0  0  0  0  0
    6.8521   53.4422  125.2388 H   0  0  0  0  0  0  0  0  0  0  0  0
    7.6934   55.3239  123.5093 C   0  0  0  0  0  0  0  0  0  0  0  0
    6.7087   54.2924  123.0297 C   0  0  0  0  0  0  0  0  0  0  0  0
    7.5688   53.1341  122.6150 C   0  0  0  0  0  0  0  0  0  0  0  0
    8.9558   53.6732  122.4502 C   0  0  0  0  0  0  0  0  0  0  0  0
    8.9499   55.0361  122.8875 N   0  0  0  0  0  0  0  0  0  0  0  0
    9.1073   55.9965  121.8033 C   0  0  0  0  0  0  0  0  0  0  0  0
    6.8809   55.3543  127.8681 C   0  0  0  0  0  0  0  0  0  0  0  0
    5.8329   56.0381  127.1162 C   0  0  0  0  0  0  0  0  0  0  0  0
    4.9907   55.3732  126.2372 O   0  0  0  0  0  0  0  0  0  0  0  0
    5.6389   57.2840  127.2317 O   0  0  0  0  0  0  0  0  0  0  0  0
    4.8162   55.6889  125.2808 H   0  0  0  0  0  0  0  0  0  0  0  0
    6.8308   49.6626  127.2548 C   0  0  0  0  0  0  0  0  0  0  0  0
    5.7943   48.5900  127.3870 C   0  0  0  0  0  0  0  0  0  0  0  0
    5.4232   48.4118  128.8511 C   0  0  0  0  0  0  0  0  0  0  0  0
    4.6527   49.3656  129.4987 O   0  0  0  0  0  0  0  0  0  0  0  0
    5.7930   47.4158  129.5082 O   0  0  0  0  0  0  0  0  0  0  0  0
    3.6828   49.1659  129.6902 H   0  0  0  0  0  0  0  0  0  0  0  0
    8.3099   45.9459  129.8459 N   0  0  0  0  0  0  0  0  0  0  0  0
    9.1883   46.7329  130.6071 C   0  0  0  0  0  0  0  0  0  0  0  0
   10.0566   46.1378  131.2987 O   0  0  0  0  0  0  0  0  0  0  0  0
    7.5856   46.4289  129.2788 H   0  0  0  0  0  0  0  0  0  0  0  0
    8.3828   44.4863  129.8293 C   0  0  0  0  0  0  0  0  0  0  0  0
    9.4497   43.2901  133.4478 C   0  0  0  0  0  0  0  0  0  0  0  0
    9.0677   41.8417  133.4836 C   0  0  0  0  0  0  0  0  0  0  0  0
    7.5232   42.0070  133.3006 C   0  0  0  0  0  0  0  0  0  0  0  0
    7.3416   43.4592  132.8361 C   0  0  0  0  0  0  0  0  0  0  0  0
    8.6657   43.6726  132.2467 N   0  0  0  0  0  0  0  0  0  0  0  0
    9.1418   44.0169  130.9894 C   0  0  0  0  0  0  0  0  0  0  0  0
   10.4247   43.9255  130.7858 O   0  0  0  0  0  0  0  0  0  0  0  0
   11.2622   45.0707  133.4813 N   0  0  0  0  0  0  0  0  0  0  0  0
   10.7860   43.7282  133.5596 C   0  0  0  0  0  0  0  0  0  0  0  0
   11.7037   42.8436  133.7514 O   0  0  0  0  0  0  0  0  0  0  0  0
   10.6196   45.8479  133.3410 H   0  0  0  0  0  0  0  0  0  0  0  0
   12.6861   45.3492  133.6055 C   0  0  0  0  0  0  0  0  0  0  0  0
   12.9128   46.4324  134.5801 C   0  0  0  0  0  0  0  0  0  0  0  0
   11.9115   47.2953  135.0735 N   0  0  0  0  0  0  0  0  0  0  0  0
   14.0882   46.6562  135.0500 O   0  0  0  0  0  0  0  0  0  0  0  0
   11.4964   47.3030  136.0146 H   0  0  0  0  0  0  0  0  0  0  0  0
   11.5386   48.0293  134.3967 H   0  0  0  0  0  0  0  0  0  0  0  0
   12.6783   46.8456  131.6679 C   0  0  0  0  0  0  0  0  0  0  0  0
   13.3003   45.6181  132.2451 C   0  0  0  0  0  0  0  0  0  0  0  0
   13.1786   44.4124  131.3252 C   0  0  0  0  0  0  0  0  0  0  0  0
    8.9278   43.9707  128.5469 C   0  0  0  0  0  0  0  0  0  0  0  0
   10.2373   44.6104  128.2034 C   0  0  0  0  0  0  0  0  0  0  0  0
   11.3803   43.8463  128.2556 O   0  0  0  0  0  0  0  0  0  0  0  0
   10.3107   45.8033  127.8746 O   0  0  0  0  0  0  0  0  0  0  0  0
   11.5967   43.2536  127.4352 H   0  0  0  0  0  0  0  0  0  0  0  0
    8.6517   48.7206  131.9611 C   0  0  0  0  0  0  0  0  0  0  0  0
    9.5055   48.4635  133.1339 C   0  0  0  0  0  0  0  0  0  0  0  0
    9.2876   47.3271  133.9067 O   0  0  0  0  0  0  0  0  0  0  0  0
   10.4531   49.1980  133.5231 O   0  0  0  0  0  0  0  0  0  0  0  0
    8.9793   47.4303  134.8749 H   0  0  0  0  0  0  0  0  0  0  0  0
 55 56  1  0  0  0
 56 57  1  0  0  0
 56 49  1  0  0  0
 49 45  1  0  0  0
 45 46  1  0  0  0
 46 47  2  0  0  0
 46 38  1  0  0  0
 38 39  1  0  0  0
 39 40  1  0  0  0
 40 41  1  0  0  0
 41 42  1  0  0  0
 42 43  1  0  0  0
 43 44  2  0  0  0
 43 37  1  0  0  0
 37 58  1  0  0  0
 58 59  1  0  0  0
 59 60  1  0  0  0
 59 61  2  0  0  0
 37 33  1  0  0  0
 33 34  1  0  0  0
 34 35  2  0  0  0
 34  1  1  0  0  0
  1 63  1  0  0  0
 63 64  1  0  0  0
 64 65  1  0  0  0
 64 66  2  0  0  0
  1  2  1  0  0  0
  2  3  1  0  0  0
  3  4  2  0  0  0
  3  6  1  0  0  0
  6 27  1  0  0  0
 27 28  1  0  0  0
 28 29  1  0  0  0
 29 30  1  0  0  0
 29 31  2  0  0  0
  6  7  1  0  0  0
  7  8  1  0  0  0
  8  9  2  0  0  0
  8 11  1  0  0  0
 11 22  1  0  0  0
 22 23  1  0  0  0
 23 24  1  0  0  0
 23 25  2  0  0  0
 11 12  1  0  0  0
 12 13  1  0  0  0
 13 14  2  0  0  0
 13 16  1  0  0  0
 16 17  1  0  0  0
 17 18  1  0  0  0
 18 19  1  0  0  0
 19 20  1  0  0  0
 20 21  1  0  0  0
 49 50  1  0  0  0
 50 51  1  0  0  0
 50 52  2  0  0  0
 42 38  1  0  0  0
 20 16  1  0  0  0
 45 48  1  0  0  0
 60 62  1  0  0  0
 33 36  1  0  0  0
 65 67  1  0  0  0
  2  5  1  0  0  0
 30 32  1  0  0  0
  7 10  1  0  0  0
 24 26  1  0  0  0
 12 15  1  0  0  0
 51 53  1  0  0  0
 51 54  1  0  0  0
M  END
> <minimizedAffinity>
9.42614

> <CNNscore>
0.3562047184

> <CNNaffinity>
7.0562925339

> <CNN_VS>
2.5134847164

> <CNNaffinity_variance>
0.6707636118

$$$$
[H]OC(=O)C([H])([H])C([H])([H])[C@@]([H])(C(=O)N([H])[C@]([H])(C(=O)N([H])[C@]([H])(C(=O)N1C([H])([H])C([H])([H])C([H])([H])[C@@]1([H])C(=O)N([H])[C@]([H])(C(=O)N([H])[H])C([H])(C([H])([H])[H])C([H])([H])[H])C([H])([H])C(=O)O[H])C([H])([H])C(=O)O[H])N([H])C(=O)[C@@]([H])(N([H])C(=O)[C@@]1([H])N(C([H])([H])[H])C([H])([H])C([H])([H])C1([H])[H])C([H])([H])C(=O)O[H]


 67 68  0  0  0  0  0  0  0  0999 V2000
    9.4360   49.5217  131.3060 C   0  0  0  0  0  0  0  0  0  0  0  0
    8.3103   50.3850  130.9087 N   0  0  0  0  0  0  0  0  0  0  0  0
    7.8792   50.4439  129.5844 C   0  0  0  0  0  0  0  0  0  0  0  0
    8.4998   49.7254  128.7242 O   0  0  0  0  0  0  0  0  0  0  0  0
    7.8595   50.9613  131.6456 H   0  0  0  0  0  0  0  0  0  0  0  0
    6.7776   51.2605  129.0763 C   0  0  0  0  0  0  0  0  0  0  0  0
    7.1270   51.8298  127.7746 N   0  0  0  0  0  0  0  0  0  0  0  0
    7.1865   53.2155  127.5827 C   0  0  0  0  0  0  0  0  0  0  0  0
    6.9161   53.9549  128.5993 O   0  0  0  0  0  0  0  0  0  0  0  0
    7.3297   51.1819  127.0031 H   0  0  0  0  0  0  0  0  0  0  0  0
    7.5365   53.8634  126.3086 C   0  0  0  0  0  0  0  0  0  0  0  0
    6.3393   54.3145  125.6404 N   0  0  0  0  0  0  0  0  0  0  0  0
    6.1778   54.3321  124.2488 C   0  0  0  0  0  0  0  0  0  0  0  0
    7.1318   53.9317  123.5115 O   0  0  0  0  0  0  0  0  0  0  0  0
    5.5380   54.6499  126.2565 H   0  0  0  0  0  0  0  0  0  0  0  0
    4.9165   54.8087  123.6435 C   0  0  0  0  0  0  0  0  0  0  0  0
    4.1243   55.6748  124.5847 C   0  0  0  0  0  0  0  0  0  0  0  0
    3.1208   54.7344  125.1862 C   0  0  0  0  0  0  0  0  0  0  0  0
    3.0721   53.5359  124.2901 C   0  0  0  0  0  0  0  0  0  0  0  0
    4.0946   53.6885  123.3003 N   0  0  0  0  0  0  0  0  0  0  0  0
    3.5771   53.9461  121.9629 C   0  0  0  0  0  0  0  0  0  0  0  0
    8.5468   54.9722  126.4723 C   0  0  0  0  0  0  0  0  0  0  0  0
    8.2197   56.2000  125.7535 C   0  0  0  0  0  0  0  0  0  0  0  0
    8.7079   56.4739  124.4844 O   0  0  0  0  0  0  0  0  0  0  0  0
    7.4659   57.0834  126.2583 O   0  0  0  0  0  0  0  0  0  0  0  0
    9.1565   57.3579  124.2349 H   0  0  0  0  0  0  0  0  0  0  0  0
    5.4816   50.5052  128.8537 C   0  0  0  0  0  0  0  0  0  0  0  0
    5.2691   49.3665  129.8027 C   0  0  0  0  0  0  0  0  0  0  0  0
    5.2226   48.0567  129.0313 C   0  0  0  0  0  0  0  0  0  0  0  0
    5.9359   47.9143  127.8507 O   0  0  0  0  0  0  0  0  0  0  0  0
    4.5522   47.0807  129.4296 O   0  0  0  0  0  0  0  0  0  0  0  0
    6.7835   47.3675  127.8521 H   0  0  0  0  0  0  0  0  0  0  0  0
    7.8717   47.6153  132.0453 N   0  0  0  0  0  0  0  0  0  0  0  0
    8.9593   48.1129  131.3105 C   0  0  0  0  0  0  0  0  0  0  0  0
    9.5950   47.3026  130.5855 O   0  0  0  0  0  0  0  0  0  0  0  0
    7.3469   48.2756  132.6519 H   0  0  0  0  0  0  0  0  0  0  0  0
    7.4625   46.2135  131.9835 C   0  0  0  0  0  0  0  0  0  0  0  0
   10.8224   44.5402  133.2381 C   0  0  0  0  0  0  0  0  0  0  0  0
   10.3907   43.6449  134.3593 C   0  0  0  0  0  0  0  0  0  0  0  0
    9.8293   44.7399  135.3245 C   0  0  0  0  0  0  0  0  0  0  0  0
    9.7064   45.9981  134.4530 C   0  0  0  0  0  0  0  0  0  0  0  0
    9.5832   45.3521  133.1440 N   0  0  0  0  0  0  0  0  0  0  0  0
    8.6352   45.3501  132.1303 C   0  0  0  0  0  0  0  0  0  0  0  0
    8.7830   44.4836  131.1697 O   0  0  0  0  0  0  0  0  0  0  0  0
   11.3753   44.6508  130.7605 N   0  0  0  0  0  0  0  0  0  0  0  0
   11.4085   44.0481  132.0530 C   0  0  0  0  0  0  0  0  0  0  0  0
   12.0503   42.9317  132.1083 O   0  0  0  0  0  0  0  0  0  0  0  0
   10.9027   45.5396  130.6081 H   0  0  0  0  0  0  0  0  0  0  0  0
   12.0259   43.9980  129.6330 C   0  0  0  0  0  0  0  0  0  0  0  0
   13.4620   44.3317  129.6073 C   0  0  0  0  0  0  0  0  0  0  0  0
   14.1854   44.8639  130.6955 N   0  0  0  0  0  0  0  0  0  0  0  0
   14.1591   44.1473  128.5430 O   0  0  0  0  0  0  0  0  0  0  0  0
   14.8858   44.3863  131.2782 H   0  0  0  0  0  0  0  0  0  0  0  0
   13.9892   45.8808  130.9470 H   0  0  0  0  0  0  0  0  0  0  0  0
   10.9070   45.7579  128.3506 C   0  0  0  0  0  0  0  0  0  0  0  0
   11.3045   44.3195  128.3383 C   0  0  0  0  0  0  0  0  0  0  0  0
   10.1241   43.3881  128.1062 C   0  0  0  0  0  0  0  0  0  0  0  0
    6.6866   45.9139  130.7524 C   0  0  0  0  0  0  0  0  0  0  0  0
    7.5826   45.6527  129.5816 C   0  0  0  0  0  0  0  0  0  0  0  0
    7.8523   44.3492  129.2334 O   0  0  0  0  0  0  0  0  0  0  0  0
    8.0803   46.5790  128.9254 O   0  0  0  0  0  0  0  0  0  0  0  0
    7.1539   43.8562  128.6499 H   0  0  0  0  0  0  0  0  0  0  0  0
   10.0257   49.9153  132.6091 C   0  0  0  0  0  0  0  0  0  0  0  0
   10.7749   48.8498  133.2978 C   0  0  0  0  0  0  0  0  0  0  0  0
   11.4235   47.8722  132.5497 O   0  0  0  0  0  0  0  0  0  0  0  0
   10.8939   48.7304  134.5469 O   0  0  0  0  0  0  0  0  0  0  0  0
   11.1122   46.9017  132.6150 H   0  0  0  0  0  0  0  0  0  0  0  0
 55 56  1  0  0  0
 56 57  1  0  0  0
 56 49  1  0  0  0
 49 45  1  0  0  0
 45 46  1  0  0  0
 46 47  2  0  0  0
 46 38  1  0  0  0
 38 39  1  0  0  0
 39 40  1  0  0  0
 40 41  1  0  0  0
 41 42  1  0  0  0
 42 43  1  0  0  0
 43 44  2  0  0  0
 43 37  1  0  0  0
 37 58  1  0  0  0
 58 59  1  0  0  0
 59 60  1  0  0  0
 59 61  2  0  0  0
 37 33  1  0  0  0
 33 34  1  0  0  0
 34 35  2  0  0  0
 34  1  1  0  0  0
  1 63  1  0  0  0
 63 64  1  0  0  0
 64 65  1  0  0  0
 64 66  2  0  0  0
  1  2  1  0  0  0
  2  3  1  0  0  0
  3  4  2  0  0  0
  3  6  1  0  0  0
  6 27  1  0  0  0
 27 28  1  0  0  0
 28 29  1  0  0  0
 29 30  1  0  0  0
 29 31  2  0  0  0
  6  7  1  0  0  0
  7  8  1  0  0  0
  8  9  2  0  0  0
  8 11  1  0  0  0
 11 22  1  0  0  0
 22 23  1  0  0  0
 23 24  1  0  0  0
 23 25  2  0  0  0
 11 12  1  0  0  0
 12 13  1  0  0  0
 13 14  2  0  0  0
 13 16  1  0  0  0
 16 17  1  0  0  0
 17 18  1  0  0  0
 18 19  1  0  0  0
 19 20  1  0  0  0
 20 21  1  0  0  0
 49 50  1  0  0  0
 50 51  1  0  0  0
 50 52  2  0  0  0
 42 38  1  0  0  0
 20 16  1  0  0  0
 45 48  1  0  0  0
 60 62  1  0  0  0
 33 36  1  0  0  0
 65 67  1  0  0  0
  2  5  1  0  0  0
 30 32  1  0  0  0
  7 10  1  0  0  0
 24 26  1  0  0  0
 12 15  1  0  0  0
 51 53  1  0  0  0
 51 54  1  0  0  0
M  END
> <minimizedAffinity>
-1.01108

> <CNNscore>
0.3412150741

> <CNNaffinity>
7.2910413742

> <CNN_VS>
2.4878132343

> <CNNaffinity_variance>
0.1367633939

$$$$
[H]OC(=O)C([H])([H])C([H])([H])[C@@]([H])(C(=O)N([H])[C@]([H])(C(=O)N([H])[C@]([H])(C(=O)N1C([H])([H])C([H])([H])C([H])([H])[C@@]1([H])C(=O)N([H])[C@]([H])(C(=O)N([H])[H])C([H])(C([H])([H])[H])C([H])([H])[H])C([H])([H])C(=O)O[H])C([H])([H])C(=O)O[H])N([H])C(=O)[C@@]([H])(N([H])C(=O)[C@@]1([H])N(C([H])([H])[H])C([H])([H])C([H])([H])C1([H])[H])C([H])([H])C(=O)O[H]


 67 68  0  0  0  0  0  0  0  0999 V2000
   12.9214   44.8706  131.6526 C   0  0  0  0  0  0  0  0  0  0  0  0
   12.6498   43.8707  132.7000 N   0  0  0  0  0  0  0  0  0  0  0  0
   12.9730   44.1171  134.0334 C   0  0  0  0  0  0  0  0  0  0  0  0
   13.5196   45.2410  134.3152 O   0  0  0  0  0  0  0  0  0  0  0  0
   12.2248   42.9690  132.4089 H   0  0  0  0  0  0  0  0  0  0  0  0
   12.7504   43.2031  135.1530 C   0  0  0  0  0  0  0  0  0  0  0  0
   13.9385   43.1464  136.0050 N   0  0  0  0  0  0  0  0  0  0  0  0
   13.9046   42.5136  137.2537 C   0  0  0  0  0  0  0  0  0  0  0  0
   12.7843   41.9939  137.6113 O   0  0  0  0  0  0  0  0  0  0  0  0
   14.8017   43.5840  135.6594 H   0  0  0  0  0  0  0  0  0  0  0  0
   15.0567   42.4087  138.1632 C   0  0  0  0  0  0  0  0  0  0  0  0
   15.3657   41.0203  138.4084 N   0  0  0  0  0  0  0  0  0  0  0  0
   15.9157   40.5391  139.6038 C   0  0  0  0  0  0  0  0  0  0  0  0
   16.1666   41.3583  140.5418 O   0  0  0  0  0  0  0  0  0  0  0  0
   15.1555   40.3316  137.6238 H   0  0  0  0  0  0  0  0  0  0  0  0
   16.2011   39.0990  139.7748 C   0  0  0  0  0  0  0  0  0  0  0  0
   17.5494   38.8551  140.3963 C   0  0  0  0  0  0  0  0  0  0  0  0
   18.4452   38.5785  139.2239 C   0  0  0  0  0  0  0  0  0  0  0  0
   17.5473   38.2414  138.0742 C   0  0  0  0  0  0  0  0  0  0  0  0
   16.1966   38.4531  138.4977 N   0  0  0  0  0  0  0  0  0  0  0  0
   15.4361   37.2206  138.6573 C   0  0  0  0  0  0  0  0  0  0  0  0
   16.2592   43.1804  137.6783 C   0  0  0  0  0  0  0  0  0  0  0  0
   17.4853   42.9244  138.4283 C   0  0  0  0  0  0  0  0  0  0  0  0
   17.7466   43.5166  139.6551 O   0  0  0  0  0  0  0  0  0  0  0  0
   18.3787   42.1406  137.9915 O   0  0  0  0  0  0  0  0  0  0  0  0
   18.6249   43.9924  139.8723 H   0  0  0  0  0  0  0  0  0  0  0  0
   11.6106   43.5963  136.0727 C   0  0  0  0  0  0  0  0  0  0  0  0
   10.5908   44.4868  135.4329 C   0  0  0  0  0  0  0  0  0  0  0  0
    9.7892   43.6974  134.4095 C   0  0  0  0  0  0  0  0  0  0  0  0
   10.3604   42.6153  133.7570 O   0  0  0  0  0  0  0  0  0  0  0  0
    8.6082   43.9917  134.1281 O   0  0  0  0  0  0  0  0  0  0  0  0
   10.0920   41.6814  134.0273 H   0  0  0  0  0  0  0  0  0  0  0  0
   10.4441   44.4837  131.0682 N   0  0  0  0  0  0  0  0  0  0  0  0
   11.6280   45.2359  131.0156 C   0  0  0  0  0  0  0  0  0  0  0  0
   11.6040   46.3201  130.3750 O   0  0  0  0  0  0  0  0  0  0  0  0
   10.4577   43.5842  131.5879 H   0  0  0  0  0  0  0  0  0  0  0  0
    9.2097   44.9227  130.4204 C   0  0  0  0  0  0  0  0  0  0  0  0
    8.7172   48.4567  132.1323 C   0  0  0  0  0  0  0  0  0  0  0  0
   10.1091   48.9023  132.4627 C   0  0  0  0  0  0  0  0  0  0  0  0
   10.4844   47.7604  133.4633 C   0  0  0  0  0  0  0  0  0  0  0  0
    9.4038   46.6900  133.2522 C   0  0  0  0  0  0  0  0  0  0  0  0
    9.0216   47.0262  131.8785 N   0  0  0  0  0  0  0  0  0  0  0  0
    9.0042   46.3508  130.6662 C   0  0  0  0  0  0  0  0  0  0  0  0
    8.7735   47.0490  129.5915 O   0  0  0  0  0  0  0  0  0  0  0  0
    7.8789   50.5547  130.9694 N   0  0  0  0  0  0  0  0  0  0  0  0
    7.8907   49.1511  131.2241 C   0  0  0  0  0  0  0  0  0  0  0  0
    7.0391   48.4732  130.5338 O   0  0  0  0  0  0  0  0  0  0  0  0
    8.5185   51.1812  131.4541 H   0  0  0  0  0  0  0  0  0  0  0  0
    6.9455   51.1137  130.0015 C   0  0  0  0  0  0  0  0  0  0  0  0
    5.6133   50.5024  130.1628 C   0  0  0  0  0  0  0  0  0  0  0  0
    5.0374   49.5770  129.2668 N   0  0  0  0  0  0  0  0  0  0  0  0
    4.8751   50.7961  131.1733 O   0  0  0  0  0  0  0  0  0  0  0  0
    4.8934   48.5687  129.4112 H   0  0  0  0  0  0  0  0  0  0  0  0
    4.7088   49.9623  128.3291 H   0  0  0  0  0  0  0  0  0  0  0  0
    7.0174   52.1591  127.7889 C   0  0  0  0  0  0  0  0  0  0  0  0
    7.4998   50.9992  128.5944 C   0  0  0  0  0  0  0  0  0  0  0  0
    7.1515   49.6609  127.9603 C   0  0  0  0  0  0  0  0  0  0  0  0
    8.0423   44.1012  130.8325 C   0  0  0  0  0  0  0  0  0  0  0  0
    8.2294   42.6571  130.4842 C   0  0  0  0  0  0  0  0  0  0  0  0
    9.2880   42.3027  129.6800 O   0  0  0  0  0  0  0  0  0  0  0  0
    7.4573   41.7827  130.9035 O   0  0  0  0  0  0  0  0  0  0  0  0
   10.2121   42.1848  130.1309 H   0  0  0  0  0  0  0  0  0  0  0  0
   13.9194   44.4019  130.6602 C   0  0  0  0  0  0  0  0  0  0  0  0
   13.4153   44.2874  129.2805 C   0  0  0  0  0  0  0  0  0  0  0  0
   14.2800   44.5064  128.2126 O   0  0  0  0  0  0  0  0  0  0  0  0
   12.2321   43.9979  128.9565 O   0  0  0  0  0  0  0  0  0  0  0  0
   14.1197   45.3016  127.5922 H   0  0  0  0  0  0  0  0  0  0  0  0
 55 56  1  0  0  0
 56 57  1  0  0  0
 56 49  1  0  0  0
 49 45  1  0  0  0
 45 46  1  0  0  0
 46 47  2  0  0  0
 46 38  1  0  0  0
 38 39  1  0  0  0
 39 40  1  0  0  0
 40 41  1  0  0  0
 41 42  1  0  0  0
 42 43  1  0  0  0
 43 44  2  0  0  0
 43 37  1  0  0  0
 37 58  1  0  0  0
 58 59  1  0  0  0
 59 60  1  0  0  0
 59 61  2  0  0  0
 37 33  1  0  0  0
 33 34  1  0  0  0
 34 35  2  0  0  0
 34  1  1  0  0  0
  1 63  1  0  0  0
 63 64  1  0  0  0
 64 65  1  0  0  0
 64 66  2  0  0  0
  1  2  1  0  0  0
  2  3  1  0  0  0
  3  4  2  0  0  0
  3  6  1  0  0  0
  6 27  1  0  0  0
 27 28  1  0  0  0
 28 29  1  0  0  0
 29 30  1  0  0  0
 29 31  2  0  0  0
  6  7  1  0  0  0
  7  8  1  0  0  0
  8  9  2  0  0  0
  8 11  1  0  0  0
 11 22  1  0  0  0
 22 23  1  0  0  0
 23 24  1  0  0  0
 23 25  2  0  0  0
 11 12  1  0  0  0
 12 13  1  0  0  0
 13 14  2  0  0  0
 13 16  1  0  0  0
 16 17  1  0  0  0
 17 18  1  0  0  0
 18 19  1  0  0  0
 19 20  1  0  0  0
 20 21  1  0  0  0
 49 50  1  0  0  0
 50 51  1  0  0  0
 50 52  2  0  0  0
 42 38  1  0  0  0
 20 16  1  0  0  0
 45 48  1  0  0  0
 60 62  1  0  0  0
 33 36  1  0  0  0
 65 67  1  0  0  0
  2  5  1  0  0  0
 30 32  1  0  0  0
  7 10  1  0  0  0
 24 26  1  0  0  0
 12 15  1  0  0  0
 51 53  1  0  0  0
 51 54  1  0  0  0
M  END
> <minimizedAffinity>
11.81489

> <CNNscore>
0.3301519752

> <CNNaffinity>
7.2688827515

> <CNN_VS>
2.3998360634

> <CNNaffinity_variance>
0.3943846226

$$$$
[H]OC(=O)C([H])([H])C([H])([H])[C@@]([H])(C(=O)N([H])[C@]([H])(C(=O)N([H])[C@]([H])(C(=O)N1C([H])([H])C([H])([H])C([H])([H])[C@@]1([H])C(=O)N([H])[C@]([H])(C(=O)N([H])[H])C([H])(C([H])([H])[H])C([H])([H])[H])C([H])([H])C(=O)O[H])C([H])([H])C(=O)O[H])N([H])C(=O)[C@@]([H])(N([H])C(=O)[C@@]1([H])N(C([H])([H])[H])C([H])([H])C([H])([H])C1([H])[H])C([H])([H])C(=O)O[H]


 67 68  0  0  0  0  0  0  0  0999 V2000
    7.6227   47.5625  128.3172 C   0  0  0  0  0  0  0  0  0  0  0  0
    7.0956   48.9380  128.3428 N   0  0  0  0  0  0  0  0  0  0  0  0
    7.8055   49.9710  128.9526 C   0  0  0  0  0  0  0  0  0  0  0  0
    8.9295   49.6813  129.4948 O   0  0  0  0  0  0  0  0  0  0  0  0
    6.1691   49.1088  127.9059 H   0  0  0  0  0  0  0  0  0  0  0  0
    7.3828   51.3684  129.0384 C   0  0  0  0  0  0  0  0  0  0  0  0
    7.3362   51.9667  127.7040 N   0  0  0  0  0  0  0  0  0  0  0  0
    7.3630   53.3560  127.5321 C   0  0  0  0  0  0  0  0  0  0  0  0
    7.4255   54.0722  128.5980 O   0  0  0  0  0  0  0  0  0  0  0  0
    7.2846   51.3364  126.8939 H   0  0  0  0  0  0  0  0  0  0  0  0
    7.3268   54.0322  126.2255 C   0  0  0  0  0  0  0  0  0  0  0  0
    6.0081   54.5670  125.9841 N   0  0  0  0  0  0  0  0  0  0  0  0
    5.3895   54.5899  124.7273 C   0  0  0  0  0  0  0  0  0  0  0  0
    6.0105   54.1169  123.7249 O   0  0  0  0  0  0  0  0  0  0  0  0
    5.4854   54.9634  126.8231 H   0  0  0  0  0  0  0  0  0  0  0  0
    4.0335   55.1553  124.5660 C   0  0  0  0  0  0  0  0  0  0  0  0
    4.0626   56.6292  124.2654 C   0  0  0  0  0  0  0  0  0  0  0  0
    3.8395   57.2769  125.6011 C   0  0  0  0  0  0  0  0  0  0  0  0
    3.2685   56.2202  126.4949 C   0  0  0  0  0  0  0  0  0  0  0  0
    3.2929   54.9814  125.7782 N   0  0  0  0  0  0  0  0  0  0  0  0
    1.9710   54.5047  125.3936 C   0  0  0  0  0  0  0  0  0  0  0  0
    8.4005   55.0821  126.0782 C   0  0  0  0  0  0  0  0  0  0  0  0
    7.9405   56.3412  125.5001 C   0  0  0  0  0  0  0  0  0  0  0  0
    7.2279   57.2809  126.2302 O   0  0  0  0  0  0  0  0  0  0  0  0
    8.1728   56.6405  124.2918 O   0  0  0  0  0  0  0  0  0  0  0  0
    6.3544   57.6998  125.9039 H   0  0  0  0  0  0  0  0  0  0  0  0
    5.9994   51.5753  129.6239 C   0  0  0  0  0  0  0  0  0  0  0  0
    5.4721   50.3917  130.3745 C   0  0  0  0  0  0  0  0  0  0  0  0
    4.5308   49.5960  129.4836 C   0  0  0  0  0  0  0  0  0  0  0  0
    3.6545   50.2501  128.6310 O   0  0  0  0  0  0  0  0  0  0  0  0
    4.5167   48.3469  129.4892 O   0  0  0  0  0  0  0  0  0  0  0  0
    3.8546   50.2707  127.6426 H   0  0  0  0  0  0  0  0  0  0  0  0
    7.6924   45.6433  130.0319 N   0  0  0  0  0  0  0  0  0  0  0  0
    7.4708   46.9836  129.6788 C   0  0  0  0  0  0  0  0  0  0  0  0
    7.1119   47.7765  130.5892 O   0  0  0  0  0  0  0  0  0  0  0  0
    7.9810   44.9811  129.2852 H   0  0  0  0  0  0  0  0  0  0  0  0
    7.5297   45.1585  131.4011 C   0  0  0  0  0  0  0  0  0  0  0  0
   10.4724   46.8688  133.4205 C   0  0  0  0  0  0  0  0  0  0  0  0
    9.9327   47.0052  134.8117 C   0  0  0  0  0  0  0  0  0  0  0  0
    8.7366   47.9638  134.5010 C   0  0  0  0  0  0  0  0  0  0  0  0
    8.5867   47.9134  132.9736 C   0  0  0  0  0  0  0  0  0  0  0  0
    9.1846   46.5978  132.7337 N   0  0  0  0  0  0  0  0  0  0  0  0
    8.7547   45.4084  132.1620 C   0  0  0  0  0  0  0  0  0  0  0  0
    9.5199   44.3637  132.2989 O   0  0  0  0  0  0  0  0  0  0  0  0
   11.8091   45.3087  131.9252 N   0  0  0  0  0  0  0  0  0  0  0  0
   11.5924   46.0680  133.1133 C   0  0  0  0  0  0  0  0  0  0  0  0
   12.5422   45.9894  133.9812 O   0  0  0  0  0  0  0  0  0  0  0  0
   11.1253   45.3083  131.1709 H   0  0  0  0  0  0  0  0  0  0  0  0
   13.0239   44.5202  131.7735 C   0  0  0  0  0  0  0  0  0  0  0  0
   13.3785   44.3953  130.3475 C   0  0  0  0  0  0  0  0  0  0  0  0
   12.5042   44.6639  129.2731 N   0  0  0  0  0  0  0  0  0  0  0  0
   14.5554   44.0168  129.9952 O   0  0  0  0  0  0  0  0  0  0  0  0
   12.5305   45.4634  128.6265 H   0  0  0  0  0  0  0  0  0  0  0  0
   11.7239   43.9577  129.1053 H   0  0  0  0  0  0  0  0  0  0  0  0
   11.8170   42.3907  131.8214 C   0  0  0  0  0  0  0  0  0  0  0  0
   12.8903   43.1875  132.4849 C   0  0  0  0  0  0  0  0  0  0  0  0
   12.6480   43.3682  133.9760 C   0  0  0  0  0  0  0  0  0  0  0  0
    7.1167   43.7319  131.4410 C   0  0  0  0  0  0  0  0  0  0  0  0
    8.0483   42.8624  130.6549 C   0  0  0  0  0  0  0  0  0  0  0  0
    8.4784   43.2985  129.4229 O   0  0  0  0  0  0  0  0  0  0  0  0
    8.4370   41.7683  131.0889 O   0  0  0  0  0  0  0  0  0  0  0  0
    9.2755   43.9582  129.4010 H   0  0  0  0  0  0  0  0  0  0  0  0
    9.0244   47.4965  127.8361 C   0  0  0  0  0  0  0  0  0  0  0  0
    9.8892   46.5583  128.5727 C   0  0  0  0  0  0  0  0  0  0  0  0
   10.5383   46.9841  129.7275 O   0  0  0  0  0  0  0  0  0  0  0  0
   10.1083   45.3596  128.2503 O   0  0  0  0  0  0  0  0  0  0  0  0
   11.5583   47.0331  129.7406 H   0  0  0  0  0  0  0  0  0  0  0  0
 55 56  1  0  0  0
 56 57  1  0  0  0
 56 49  1  0  0  0
 49 45  1  0  0  0
 45 46  1  0  0  0
 46 47  2  0  0  0
 46 38  1  0  0  0
 38 39  1  0  0  0
 39 40  1  0  0  0
 40 41  1  0  0  0
 41 42  1  0  0  0
 42 43  1  0  0  0
 43 44  2  0  0  0
 43 37  1  0  0  0
 37 58  1  0  0  0
 58 59  1  0  0  0
 59 60  1  0  0  0
 59 61  2  0  0  0
 37 33  1  0  0  0
 33 34  1  0  0  0
 34 35  2  0  0  0
 34  1  1  0  0  0
  1 63  1  0  0  0
 63 64  1  0  0  0
 64 65  1  0  0  0
 64 66  2  0  0  0
  1  2  1  0  0  0
  2  3  1  0  0  0
  3  4  2  0  0  0
  3  6  1  0  0  0
  6 27  1  0  0  0
 27 28  1  0  0  0
 28 29  1  0  0  0
 29 30  1  0  0  0
 29 31  2  0  0  0
  6  7  1  0  0  0
  7  8  1  0  0  0
  8  9  2  0  0  0
  8 11  1  0  0  0
 11 22  1  0  0  0
 22 23  1  0  0  0
 23 24  1  0  0  0
 23 25  2  0  0  0
 11 12  1  0  0  0
 12 13  1  0  0  0
 13 14  2  0  0  0
 13 16  1  0  0  0
 16 17  1  0  0  0
 17 18  1  0  0  0
 18 19  1  0  0  0
 19 20  1  0  0  0
 20 21  1  0  0  0
 49 50  1  0  0  0
 50 51  1  0  0  0
 50 52  2  0  0  0
 42 38  1  0  0  0
 20 16  1  0  0  0
 45 48  1  0  0  0
 60 62  1  0  0  0
 33 36  1  0  0  0
 65 67  1  0  0  0
  2  5  1  0  0  0
 30 32  1  0  0  0
  7 10  1  0  0  0
 24 26  1  0  0  0
 12 15  1  0  0  0
 51 53  1  0  0  0
 51 54  1  0  0  0
M  END
> <minimizedAffinity>
2.56430

> <CNNscore>
0.3176392913

> <CNNaffinity>
7.2982244492

> <CNN_VS>
2.3182027340

> <CNNaffinity_variance>
0.1961334646

$$$$
[H]OC(=O)[C@]1([H])C([H])([H])S[C@]([H])(C([H])([H])[H])N(C(=O)c2c([H])c([H])c([H])c([H])c2[H])C(=O)[C@]1([H])N([H])C(=O)OC([H])([H])c1c([H])c([H])c([H])c([H])c1[H]


 33 35  0  0  0  0  0  0  0  0999 V2000
   10.3720   42.8285  130.9856 C   0  0  0  0  0  0  0  0  0  0  0  0
    9.7814   43.2844  132.2351 C   0  0  0  0  0  0  0  0  0  0  0  0
   10.5500   43.9220  133.0451 O   0  0  0  0  0  0  0  0  0  0  0  0
    8.4408   43.1667  132.8015 N   0  0  0  0  0  0  0  0  0  0  0  0
    7.8155   44.3013  133.3219 C   0  0  0  0  0  0  0  0  0  0  0  0
    6.6899   44.0411  133.9287 O   0  0  0  0  0  0  0  0  0  0  0  0
    7.7740   41.9019  132.8577 C   0  0  0  0  0  0  0  0  0  0  0  0
    6.7232   41.6424  133.8560 C   0  0  0  0  0  0  0  0  0  0  0  0
    7.1399   41.6352  131.1345 S   0  0  0  0  0  0  0  0  0  0  0  0
    8.6181   41.1911  130.1723 C   0  0  0  0  0  0  0  0  0  0  0  0
    9.4896   42.4146  129.8796 C   0  0  0  0  0  0  0  0  0  0  0  0
    8.1490   45.6982  133.3329 C   0  0  0  0  0  0  0  0  0  0  0  0
    8.0525   46.3797  132.0873 C   0  0  0  0  0  0  0  0  0  0  0  0
    8.4076   47.6897  131.9291 C   0  0  0  0  0  0  0  0  0  0  0  0
    8.8782   48.3836  133.0147 C   0  0  0  0  0  0  0  0  0  0  0  0
    8.9807   47.7466  134.2264 C   0  0  0  0  0  0  0  0  0  0  0  0
    8.6238   46.4314  134.3790 C   0  0  0  0  0  0  0  0  0  0  0  0
   13.1716   42.7890  131.4274 O   0  0  0  0  0  0  0  0  0  0  0  0
   12.7225   43.7295  130.7366 C   0  0  0  0  0  0  0  0  0  0  0  0
   11.3288   43.8100  130.4763 N   0  0  0  0  0  0  0  0  0  0  0  0
   11.0030   44.6209  129.8931 H   0  0  0  0  0  0  0  0  0  0  0  0
   13.5800   44.6673  130.2413 O   0  0  0  0  0  0  0  0  0  0  0  0
   13.9531   45.8780  130.8507 C   0  0  0  0  0  0  0  0  0  0  0  0
   13.1810   46.0452  132.1005 C   0  0  0  0  0  0  0  0  0  0  0  0
   11.9902   46.7331  132.1231 C   0  0  0  0  0  0  0  0  0  0  0  0
   11.2453   46.9080  133.2697 C   0  0  0  0  0  0  0  0  0  0  0  0
   11.7107   46.3720  134.4450 C   0  0  0  0  0  0  0  0  0  0  0  0
   12.8954   45.6817  134.4487 C   0  0  0  0  0  0  0  0  0  0  0  0
   13.6432   45.5100  133.2806 C   0  0  0  0  0  0  0  0  0  0  0  0
    8.7451   43.4147  129.1402 C   0  0  0  0  0  0  0  0  0  0  0  0
    8.5983   43.2289  127.7437 O   0  0  0  0  0  0  0  0  0  0  0  0
    8.2139   44.4293  129.5890 O   0  0  0  0  0  0  0  0  0  0  0  0
    8.8014   44.0254  127.1424 H   0  0  0  0  0  0  0  0  0  0  0  0
 18 19  2  0  0  0
 19 22  1  0  0  0
 22 23  1  0  0  0
 23 24  1  0  0  0
 24 25  2  0  0  0
 25 26  1  0  0  0
 26 27  2  0  0  0
 27 28  1  0  0  0
 28 29  2  0  0  0
 19 20  1  0  0  0
 20  1  1  0  0  0
  1  2  1  0  0  0
  2  3  2  0  0  0
  2  4  1  0  0  0
  4  5  1  0  0  0
  5 12  1  0  0  0
 12 13  2  0  0  0
 13 14  1  0  0  0
 14 15  2  0  0  0
 15 16  1  0  0  0
 16 17  2  0  0  0
  5  6  2  0  0  0
  4  7  1  0  0  0
  7  8  1  0  0  0
  7  9  1  0  0  0
  9 10  1  0  0  0
 10 11  1  0  0  0
 11 30  1  0  0  0
 30 31  1  0  0  0
 30 32  2  0  0  0
 29 24  1  0  0  0
 11  1  1  0  0  0
 17 12  1  0  0  0
 20 21  1  0  0  0
 31 33  1  0  0  0
M  END
> <minimizedAffinity>
15.44274

> <CNNscore>
0.4612885416

> <CNNaffinity>
6.5314741135

> <CNN_VS>
3.0128941536

> <CNNaffinity_variance>
0.7697622180

$$$$
[H]OC(=O)[C@]1([H])C([H])([H])S[C@]([H])(C([H])([H])[H])N(C(=O)c2c([H])c([H])c([H])c([H])c2[H])C(=O)[C@]1([H])N([H])C(=O)OC([H])([H])c1c([H])c([H])c([H])c([H])c1[H]


 33 35  0  0  0  0  0  0  0  0999 V2000
    9.6637   42.9518  132.4467 C   0  0  0  0  0  0  0  0  0  0  0  0
    9.2578   42.9752  131.0495 C   0  0  0  0  0  0  0  0  0  0  0  0
    8.4045   43.8732  130.7049 O   0  0  0  0  0  0  0  0  0  0  0  0
    9.6218   42.1583  129.8952 N   0  0  0  0  0  0  0  0  0  0  0  0
    9.9838   42.7837  128.7008 C   0  0  0  0  0  0  0  0  0  0  0  0
   10.1425   41.9526  127.7074 O   0  0  0  0  0  0  0  0  0  0  0  0
    9.5830   40.7295  129.9633 C   0  0  0  0  0  0  0  0  0  0  0  0
    9.4114   39.9169  128.7473 C   0  0  0  0  0  0  0  0  0  0  0  0
   11.1375   40.2658  130.8637 S   0  0  0  0  0  0  0  0  0  0  0  0
   10.7992   40.6922  132.5992 C   0  0  0  0  0  0  0  0  0  0  0  0
   10.8729   42.2026  132.8340 C   0  0  0  0  0  0  0  0  0  0  0  0
   10.2181   44.1515  128.3309 C   0  0  0  0  0  0  0  0  0  0  0  0
   11.3912   44.7568  128.8626 C   0  0  0  0  0  0  0  0  0  0  0  0
   11.7059   46.0707  128.6579 C   0  0  0  0  0  0  0  0  0  0  0  0
   10.8580   46.8452  127.9079 C   0  0  0  0  0  0  0  0  0  0  0  0
    9.7198   46.2831  127.3853 C   0  0  0  0  0  0  0  0  0  0  0  0
    9.4086   44.9642  127.5949 C   0  0  0  0  0  0  0  0  0  0  0  0
    7.5571   44.4168  133.6511 O   0  0  0  0  0  0  0  0  0  0  0  0
    8.6672   44.9866  133.5714 C   0  0  0  0  0  0  0  0  0  0  0  0
    9.7661   44.3098  132.9793 N   0  0  0  0  0  0  0  0  0  0  0  0
   10.6757   44.8339  132.9347 H   0  0  0  0  0  0  0  0  0  0  0  0
    8.8073   46.2539  134.0560 O   0  0  0  0  0  0  0  0  0  0  0  0
    8.6534   46.6713  135.3895 C   0  0  0  0  0  0  0  0  0  0  0  0
    8.3534   48.1190  135.4086 C   0  0  0  0  0  0  0  0  0  0  0  0
    7.6152   48.6867  136.4208 C   0  0  0  0  0  0  0  0  0  0  0  0
    7.3168   50.0317  136.4697 C   0  0  0  0  0  0  0  0  0  0  0  0
    7.7764   50.8447  135.4633 C   0  0  0  0  0  0  0  0  0  0  0  0
    8.5147   50.3027  134.4428 C   0  0  0  0  0  0  0  0  0  0  0  0
    8.8116   48.9377  134.4025 C   0  0  0  0  0  0  0  0  0  0  0  0
   12.1816   42.7173  132.4826 C   0  0  0  0  0  0  0  0  0  0  0  0
   13.0125   43.1788  133.5327 O   0  0  0  0  0  0  0  0  0  0  0  0
   12.6688   42.8047  131.3565 O   0  0  0  0  0  0  0  0  0  0  0  0
   13.4557   44.0879  133.4128 H   0  0  0  0  0  0  0  0  0  0  0  0
 18 19  2  0  0  0
 19 22  1  0  0  0
 22 23  1  0  0  0
 23 24  1  0  0  0
 24 25  2  0  0  0
 25 26  1  0  0  0
 26 27  2  0  0  0
 27 28  1  0  0  0
 28 29  2  0  0  0
 19 20  1  0  0  0
 20  1  1  0  0  0
  1  2  1  0  0  0
  2  3  2  0  0  0
  2  4  1  0  0  0
  4  5  1  0  0  0
  5 12  1  0  0  0
 12 13  2  0  0  0
 13 14  1  0  0  0
 14 15  2  0  0  0
 15 16  1  0  0  0
 16 17  2  0  0  0
  5  6  2  0  0  0
  4  7  1  0  0  0
  7  8  1  0  0  0
  7  9  1  0  0  0
  9 10  1  0  0  0
 10 11  1  0  0  0
 11 30  1  0  0  0
 30 31  1  0  0  0
 30 32  2  0  0  0
 29 24  1  0  0  0
 11  1  1  0  0  0
 17 12  1  0  0  0
 20 21  1  0  0  0
 31 33  1  0  0  0
M  END
> <minimizedAffinity>
30.98026

> <CNNscore>
0.3357624710

> <CNNaffinity>
6.1700072289

> <CNN_VS>
2.0716569424

> <CNNaffinity_variance>
1.2332077026

$$$$
[H]OC(=O)[C@]1([H])C([H])([H])S[C@]([H])(C([H])([H])[H])N(C(=O)c2c([H])c([H])c([H])c([H])c2[H])C(=O)[C@]1([H])N([H])C(=O)OC([H])([H])c1c([H])c([H])c([H])c([H])c1[H]


 33 35  0  0  0  0  0  0  0  0999 V2000
    8.3561   47.5665  132.7523 C   0  0  0  0  0  0  0  0  0  0  0  0
    8.4081   46.1997  133.2490 C   0  0  0  0  0  0  0  0  0  0  0  0
    7.4124   45.4375  132.9648 O   0  0  0  0  0  0  0  0  0  0  0  0
    9.3907   45.4680  134.0435 N   0  0  0  0  0  0  0  0  0  0  0  0
    9.8107   44.2058  133.6199 C   0  0  0  0  0  0  0  0  0  0  0  0
   10.5729   43.5951  134.4852 O   0  0  0  0  0  0  0  0  0  0  0  0
    9.9043   46.0131  135.2628 C   0  0  0  0  0  0  0  0  0  0  0  0
   10.4383   45.1373  136.3193 C   0  0  0  0  0  0  0  0  0  0  0  0
   11.1720   47.2537  134.7183 S   0  0  0  0  0  0  0  0  0  0  0  0
   10.1947   48.6612  134.1086 C   0  0  0  0  0  0  0  0  0  0  0  0
    9.5892   48.3743  132.7328 C   0  0  0  0  0  0  0  0  0  0  0  0
    9.5805   43.4332  132.4313 C   0  0  0  0  0  0  0  0  0  0  0  0
   10.7241   43.1448  131.6349 C   0  0  0  0  0  0  0  0  0  0  0  0
   10.6493   42.4840  130.4413 C   0  0  0  0  0  0  0  0  0  0  0  0
    9.4210   42.0781  129.9854 C   0  0  0  0  0  0  0  0  0  0  0  0
    8.3034   42.3459  130.7363 C   0  0  0  0  0  0  0  0  0  0  0  0
    8.3845   43.0104  131.9331 C   0  0  0  0  0  0  0  0  0  0  0  0
    7.8376   49.9154  131.2527 O   0  0  0  0  0  0  0  0  0  0  0  0
    7.5162   48.8275  130.7267 C   0  0  0  0  0  0  0  0  0  0  0  0
    7.7479   47.6120  131.4233 N   0  0  0  0  0  0  0  0  0  0  0  0
    7.4571   46.7264  130.9383 H   0  0  0  0  0  0  0  0  0  0  0  0
    6.9460   48.8238  129.4877 O   0  0  0  0  0  0  0  0  0  0  0  0
    6.8107   47.7243  128.6222 C   0  0  0  0  0  0  0  0  0  0  0  0
    8.0677   46.9456  128.6340 C   0  0  0  0  0  0  0  0  0  0  0  0
    9.2769   47.5282  128.3340 C   0  0  0  0  0  0  0  0  0  0  0  0
   10.4669   46.8324  128.3353 C   0  0  0  0  0  0  0  0  0  0  0  0
   10.4475   45.4961  128.6501 C   0  0  0  0  0  0  0  0  0  0  0  0
    9.2544   44.8920  128.9529 C   0  0  0  0  0  0  0  0  0  0  0  0
    8.0533   45.6064  128.9488 C   0  0  0  0  0  0  0  0  0  0  0  0
   10.6257   48.0817  131.7625 C   0  0  0  0  0  0  0  0  0  0  0  0
   10.9706   49.0988  130.8391 O   0  0  0  0  0  0  0  0  0  0  0  0
   11.2559   47.0324  131.6407 O   0  0  0  0  0  0  0  0  0  0  0  0
   11.0287   48.8377  129.8564 H   0  0  0  0  0  0  0  0  0  0  0  0
 18 19  2  0  0  0
 19 22  1  0  0  0
 22 23  1  0  0  0
 23 24  1  0  0  0
 24 25  2  0  0  0
 25 26  1  0  0  0
 26 27  2  0  0  0
 27 28  1  0  0  0
 28 29  2  0  0  0
 19 20  1  0  0  0
 20  1  1  0  0  0
  1  2  1  0  0  0
  2  3  2  0  0  0
  2  4  1  0  0  0
  4  5  1  0  0  0
  5 12  1  0  0  0
 12 13  2  0  0  0
 13 14  1  0  0  0
 14 15  2  0  0  0
 15 16  1  0  0  0
 16 17  2  0  0  0
  5  6  2  0  0  0
  4  7  1  0  0  0
  7  8  1  0  0  0
  7  9  1  0  0  0
  9 10  1  0  0  0
 10 11  1  0  0  0
 11 30  1  0  0  0
 30 31  1  0  0  0
 30 32  2  0  0  0
 29 24  1  0  0  0
 11  1  1  0  0  0
 17 12  1  0  0  0
 20 21  1  0  0  0
 31 33  1  0  0  0
M  END
> <minimizedAffinity>
0.34354

> <CNNscore>
0.2705672979

> <CNNaffinity>
6.7065401077

> <CNN_VS>
1.8145704269

> <CNNaffinity_variance>
0.1221016869

$$$$
[H]OC(=O)[C@]1([H])C([H])([H])S[C@]([H])(C([H])([H])[H])N(C(=O)c2c([H])c([H])c([H])c([H])c2[H])C(=O)[C@]1([H])N([H])C(=O)OC([H])([H])c1c([H])c([H])c([H])c([H])c1[H]


 33 35  0  0  0  0  0  0  0  0999 V2000
    8.8737   45.3042  129.2107 C   0  0  0  0  0  0  0  0  0  0  0  0
    9.9199   45.9020  130.0267 C   0  0  0  0  0  0  0  0  0  0  0  0
    9.8011   47.1520  130.3035 O   0  0  0  0  0  0  0  0  0  0  0  0
   11.1391   45.3677  130.6269 N   0  0  0  0  0  0  0  0  0  0  0  0
   11.4109   45.6273  131.9713 C   0  0  0  0  0  0  0  0  0  0  0  0
   12.5932   45.2245  132.3489 O   0  0  0  0  0  0  0  0  0  0  0  0
   12.0709   44.6097  129.8494 C   0  0  0  0  0  0  0  0  0  0  0  0
   13.4898   44.5276  130.2345 C   0  0  0  0  0  0  0  0  0  0  0  0
   11.3112   42.9210  129.7318 S   0  0  0  0  0  0  0  0  0  0  0  0
    9.9573   43.1167  128.5332 C   0  0  0  0  0  0  0  0  0  0  0  0
    8.7560   43.8359  129.1509 C   0  0  0  0  0  0  0  0  0  0  0  0
   10.6644   46.2466  133.0306 C   0  0  0  0  0  0  0  0  0  0  0  0
    9.5727   45.4986  133.5540 C   0  0  0  0  0  0  0  0  0  0  0  0
    8.7293   45.9882  134.5112 C   0  0  0  0  0  0  0  0  0  0  0  0
    8.9389   47.2553  134.9927 C   0  0  0  0  0  0  0  0  0  0  0  0
    9.9855   47.9959  134.5020 C   0  0  0  0  0  0  0  0  0  0  0  0
   10.8282   47.4997  133.5407 C   0  0  0  0  0  0  0  0  0  0  0  0
    7.5781   47.4278  127.8518 O   0  0  0  0  0  0  0  0  0  0  0  0
    6.9745   46.9304  128.8273 C   0  0  0  0  0  0  0  0  0  0  0  0
    7.5666   45.8631  129.5531 N   0  0  0  0  0  0  0  0  0  0  0  0
    7.0192   45.4830  130.3654 H   0  0  0  0  0  0  0  0  0  0  0  0
    5.7523   47.4214  129.1814 O   0  0  0  0  0  0  0  0  0  0  0  0
    5.4521   48.7353  129.5813 C   0  0  0  0  0  0  0  0  0  0  0  0
    6.6577   49.3411  130.1862 C   0  0  0  0  0  0  0  0  0  0  0  0
    7.3312   48.7267  131.2161 C   0  0  0  0  0  0  0  0  0  0  0  0
    8.4573   49.2631  131.8029 C   0  0  0  0  0  0  0  0  0  0  0  0
    8.9311   50.4659  131.3402 C   0  0  0  0  0  0  0  0  0  0  0  0
    8.2773   51.0983  130.3142 C   0  0  0  0  0  0  0  0  0  0  0  0
    7.1362   50.5461  129.7261 C   0  0  0  0  0  0  0  0  0  0  0  0
    8.2508   43.1073  130.2978 C   0  0  0  0  0  0  0  0  0  0  0  0
    8.1406   43.8045  131.5257 O   0  0  0  0  0  0  0  0  0  0  0  0
    7.8990   41.9292  130.3346 O   0  0  0  0  0  0  0  0  0  0  0  0
    8.5196   43.3520  132.3556 H   0  0  0  0  0  0  0  0  0  0  0  0
 18 19  2  0  0  0
 19 22  1  0  0  0
 22 23  1  0  0  0
 23 24  1  0  0  0
 24 25  2  0  0  0
 25 26  1  0  0  0
 26 27  2  0  0  0
 27 28  1  0  0  0
 28 29  2  0  0  0
 19 20  1  0  0  0
 20  1  1  0  0  0
  1  2  1  0  0  0
  2  3  2  0  0  0
  2  4  1  0  0  0
  4  5  1  0  0  0
  5 12  1  0  0  0
 12 13  2  0  0  0
 13 14  1  0  0  0
 14 15  2  0  0  0
 15 16  1  0  0  0
 16 17  2  0  0  0
  5  6  2  0  0  0
  4  7  1  0  0  0
  7  8  1  0  0  0
  7  9  1  0  0  0
  9 10  1  0  0  0
 10 11  1  0  0  0
 11 30  1  0  0  0
 30 31  1  0  0  0
 30 32  2  0  0  0
 29 24  1  0  0  0
 11  1  1  0  0  0
 17 12  1  0  0  0
 20 21  1  0  0  0
 31 33  1  0  0  0
M  END
> <minimizedAffinity>
-3.49456

> <CNNscore>
0.1853094697

> <CNNaffinity>
6.7476782799

> <CNN_VS>
1.2504086494

> <CNNaffinity_variance>
0.0788754374

$$$$
[H]OC(=O)[C@]1([H])C([H])([H])S[C@]([H])(C([H])([H])[H])N(C(=O)c2c([H])c([H])c([H])c([H])c2[H])C(=O)[C@]1([H])N([H])C(=O)OC([H])([H])c1c([H])c([H])c([H])c([H])c1[H]


 33 35  0  0  0  0  0  0  0  0999 V2000
   10.1083   48.3968  130.1959 C   0  0  0  0  0  0  0  0  0  0  0  0
    9.1002   47.4157  129.8233 C   0  0  0  0  0  0  0  0  0  0  0  0
    9.5210   46.3059  129.3288 O   0  0  0  0  0  0  0  0  0  0  0  0
    7.6414   47.4169  129.8867 N   0  0  0  0  0  0  0  0  0  0  0  0
    6.9794   46.3201  130.4415 C   0  0  0  0  0  0  0  0  0  0  0  0
    5.6826   46.3743  130.3071 O   0  0  0  0  0  0  0  0  0  0  0  0
    6.8828   48.5106  129.3616 C   0  0  0  0  0  0  0  0  0  0  0  0
    5.4893   48.3257  128.9233 C   0  0  0  0  0  0  0  0  0  0  0  0
    7.0053   49.8271  130.6633 S   0  0  0  0  0  0  0  0  0  0  0  0
    8.6947   50.4785  130.4901 C   0  0  0  0  0  0  0  0  0  0  0  0
    9.7326   49.5185  131.0757 C   0  0  0  0  0  0  0  0  0  0  0  0
    7.4233   45.1402  131.1297 C   0  0  0  0  0  0  0  0  0  0  0  0
    7.7000   45.2861  132.5181 C   0  0  0  0  0  0  0  0  0  0  0  0
    8.1988   44.2716  133.2856 C   0  0  0  0  0  0  0  0  0  0  0  0
    8.4457   43.0570  132.6980 C   0  0  0  0  0  0  0  0  0  0  0  0
    8.1872   42.8931  131.3597 C   0  0  0  0  0  0  0  0  0  0  0  0
    7.6875   43.9151  130.5942 C   0  0  0  0  0  0  0  0  0  0  0  0
   10.0871   46.3866  132.1943 O   0  0  0  0  0  0  0  0  0  0  0  0
   11.2053   46.7374  131.7584 C   0  0  0  0  0  0  0  0  0  0  0  0
   11.2884   47.7398  130.7562 N   0  0  0  0  0  0  0  0  0  0  0  0
   12.2516   47.9998  130.4264 H   0  0  0  0  0  0  0  0  0  0  0  0
   12.3326   46.1503  132.2532 O   0  0  0  0  0  0  0  0  0  0  0  0
   12.8436   44.8842  131.9183 C   0  0  0  0  0  0  0  0  0  0  0  0
   12.1687   44.4018  130.6943 C   0  0  0  0  0  0  0  0  0  0  0  0
   12.4491   44.9392  129.4597 C   0  0  0  0  0  0  0  0  0  0  0  0
   11.8389   44.5138  128.2991 C   0  0  0  0  0  0  0  0  0  0  0  0
   10.9080   43.5074  128.3757 C   0  0  0  0  0  0  0  0  0  0  0  0
   10.6110   42.9552  129.5951 C   0  0  0  0  0  0  0  0  0  0  0  0
   11.2353   43.3937  130.7660 C   0  0  0  0  0  0  0  0  0  0  0  0
    9.4772   49.2757  132.4818 C   0  0  0  0  0  0  0  0  0  0  0  0
   10.4329   49.7443  133.4161 O   0  0  0  0  0  0  0  0  0  0  0  0
    8.5087   48.6978  132.9730 O   0  0  0  0  0  0  0  0  0  0  0  0
   10.7421   49.0925  134.1350 H   0  0  0  0  0  0  0  0  0  0  0  0
 18 19  2  0  0  0
 19 22  1  0  0  0
 22 23  1  0  0  0
 23 24  1  0  0  0
 24 25  2  0  0  0
 25 26  1  0  0  0
 26 27  2  0  0  0
 27 28  1  0  0  0
 28 29  2  0  0  0
 19 20  1  0  0  0
 20  1  1  0  0  0
  1  2  1  0  0  0
  2  3  2  0  0  0
  2  4  1  0  0  0
  4  5  1  0  0  0
  5 12  1  0  0  0
 12 13  2  0  0  0
 13 14  1  0  0  0
 14 15  2  0  0  0
 15 16  1  0  0  0
 16 17  2  0  0  0
  5  6  2  0  0  0
  4  7  1  0  0  0
  7  8  1  0  0  0
  7  9  1  0  0  0
  9 10  1  0  0  0
 10 11  1  0  0  0
 11 30  1  0  0  0
 30 31  1  0  0  0
 30 32  2  0  0  0
 29 24  1  0  0  0
 11  1  1  0  0  0
 17 12  1  0  0  0
 20 21  1  0  0  0
 31 33  1  0  0  0
M  END
> <minimizedAffinity>
-4.29040

> <CNNscore>
0.1659613401

> <CNNaffinity>
6.5150666237

> <CNN_VS>
1.0812492371

> <CNNaffinity_variance>
0.0839870647

$$$$
[H]OC(=O)[C@]1([H])C([H])([H])S[C@]([H])(C([H])([H])[H])N(C(=O)c2c([H])c([H])c([H])c([H])c2[H])C(=O)[C@]1([H])N([H])C(=O)OC([H])([H])c1c([H])c([H])c([H])c([H])c1[H]


 33 35  0  0  0  0  0  0  0  0999 V2000
   11.3381   44.4316  132.3657 C   0  0  0  0  0  0  0  0  0  0  0  0
   11.0564   45.7567  132.8972 C   0  0  0  0  0  0  0  0  0  0  0  0
   11.7567   46.7313  132.4358 O   0  0  0  0  0  0  0  0  0  0  0  0
   10.1078   46.2465  133.8934 N   0  0  0  0  0  0  0  0  0  0  0  0
    9.3155   47.3569  133.5963 C   0  0  0  0  0  0  0  0  0  0  0  0
    8.6198   47.7850  134.6139 O   0  0  0  0  0  0  0  0  0  0  0  0
   10.0020   45.6239  135.1774 C   0  0  0  0  0  0  0  0  0  0  0  0
    9.4970   46.3696  136.3423 C   0  0  0  0  0  0  0  0  0  0  0  0
    8.9918   44.0980  134.8709 S   0  0  0  0  0  0  0  0  0  0  0  0
   10.1379   42.9564  134.0395 C   0  0  0  0  0  0  0  0  0  0  0  0
   10.3620   43.3472  132.5770 C   0  0  0  0  0  0  0  0  0  0  0  0
    9.1034   48.1317  132.4058 C   0  0  0  0  0  0  0  0  0  0  0  0
    8.1476   47.6216  131.4830 C   0  0  0  0  0  0  0  0  0  0  0  0
    7.8943   48.2102  130.2761 C   0  0  0  0  0  0  0  0  0  0  0  0
    8.5883   49.3425  129.9334 C   0  0  0  0  0  0  0  0  0  0  0  0
    9.5160   49.8524  130.8074 C   0  0  0  0  0  0  0  0  0  0  0  0
    9.7667   49.2570  132.0169 C   0  0  0  0  0  0  0  0  0  0  0  0
   13.9040   44.0478  131.2238 O   0  0  0  0  0  0  0  0  0  0  0  0
   12.9669   44.2986  130.4349 C   0  0  0  0  0  0  0  0  0  0  0  0
   11.6554   44.5020  130.9400 N   0  0  0  0  0  0  0  0  0  0  0  0
   10.9049   44.7123  130.2354 H   0  0  0  0  0  0  0  0  0  0  0  0
   13.2184   44.3733  129.0964 O   0  0  0  0  0  0  0  0  0  0  0  0
   12.4847   45.0925  128.1368 C   0  0  0  0  0  0  0  0  0  0  0  0
   11.0524   44.7509  128.2715 C   0  0  0  0  0  0  0  0  0  0  0  0
   10.1175   45.6976  128.6200 C   0  0  0  0  0  0  0  0  0  0  0  0
    8.7752   45.4139  128.7546 C   0  0  0  0  0  0  0  0  0  0  0  0
    8.3487   44.1281  128.5311 C   0  0  0  0  0  0  0  0  0  0  0  0
    9.2614   43.1660  128.1824 C   0  0  0  0  0  0  0  0  0  0  0  0
   10.6202   43.4640  128.0486 C   0  0  0  0  0  0  0  0  0  0  0  0
    9.1104   43.3531  131.8457 C   0  0  0  0  0  0  0  0  0  0  0  0
    8.4324   44.5891  131.7090 O   0  0  0  0  0  0  0  0  0  0  0  0
    8.5526   42.3921  131.3181 O   0  0  0  0  0  0  0  0  0  0  0  0
    7.4367   44.6019  131.9227 H   0  0  0  0  0  0  0  0  0  0  0  0
 18 19  2  0  0  0
 19 22  1  0  0  0
 22 23  1  0  0  0
 23 24  1  0  0  0
 24 25  2  0  0  0
 25 26  1  0  0  0
 26 27  2  0  0  0
 27 28  1  0  0  0
 28 29  2  0  0  0
 19 20  1  0  0  0
 20  1  1  0  0  0
  1  2  1  0  0  0
  2  3  2  0  0  0
  2  4  1  0  0  0
  4  5  1  0  0  0
  5 12  1  0  0  0
 12 13  2  0  0  0
 13 14  1  0  0  0
 14 15  2  0  0  0
 15 16  1  0  0  0
 16 17  2  0  0  0
  5  6  2  0  0  0
  4  7  1  0  0  0
  7  8  1  0  0  0
  7  9  1  0  0  0
  9 10  1  0  0  0
 10 11  1  0  0  0
 11 30  1  0  0  0
 30 31  1  0  0  0
 30 32  2  0  0  0
 29 24  1  0  0  0
 11  1  1  0  0  0
 17 12  1  0  0  0
 20 21  1  0  0  0
 31 33  1  0  0  0
M  END
> <minimizedAffinity>
-0.49299

> <CNNscore>
0.1567137837

> <CNNaffinity>
6.7715058327

> <CNN_VS>
1.0611883402

> <CNNaffinity_variance>
0.2357713282

$$$$
[H]OC(=O)[C@]1([H])C([H])([H])S[C@]([H])(C([H])([H])[H])N(C(=O)c2c([H])c([H])c([H])c([H])c2[H])C(=O)[C@]1([H])N([H])C(=O)OC([H])([H])c1c([H])c([H])c([H])c([H])c1[H]


 33 35  0  0  0  0  0  0  0  0999 V2000
    7.7610   45.5706  129.9626 C   0  0  0  0  0  0  0  0  0  0  0  0
    7.5362   46.5124  131.0490 C   0  0  0  0  0  0  0  0  0  0  0  0
    7.0377   46.0406  132.1362 O   0  0  0  0  0  0  0  0  0  0  0  0
    7.7597   47.9494  131.1803 N   0  0  0  0  0  0  0  0  0  0  0  0
    8.4220   48.4389  132.3075 C   0  0  0  0  0  0  0  0  0  0  0  0
    8.4292   49.7418  132.3800 O   0  0  0  0  0  0  0  0  0  0  0  0
    7.2831   48.8621  130.1867 C   0  0  0  0  0  0  0  0  0  0  0  0
    7.0074   50.2697  130.5199 C   0  0  0  0  0  0  0  0  0  0  0  0
    8.5164   48.7307  128.8067 S   0  0  0  0  0  0  0  0  0  0  0  0
    8.1356   47.1407  128.0099 C   0  0  0  0  0  0  0  0  0  0  0  0
    8.6369   45.9580  128.8418 C   0  0  0  0  0  0  0  0  0  0  0  0
    9.0982   47.8120  133.4086 C   0  0  0  0  0  0  0  0  0  0  0  0
   10.5203   47.8634  133.3875 C   0  0  0  0  0  0  0  0  0  0  0  0
   11.2987   47.2484  134.3272 C   0  0  0  0  0  0  0  0  0  0  0  0
   10.6887   46.5495  135.3375 C   0  0  0  0  0  0  0  0  0  0  0  0
    9.3180   46.4855  135.3779 C   0  0  0  0  0  0  0  0  0  0  0  0
    8.5419   47.1039  134.4315 C   0  0  0  0  0  0  0  0  0  0  0  0
    8.6154   43.3686  128.3955 O   0  0  0  0  0  0  0  0  0  0  0  0
    8.6264   43.2162  129.6365 C   0  0  0  0  0  0  0  0  0  0  0  0
    8.2108   44.2794  130.4810 N   0  0  0  0  0  0  0  0  0  0  0  0
    8.2365   44.0989  131.5158 H   0  0  0  0  0  0  0  0  0  0  0  0
    9.0389   42.0275  130.1630 O   0  0  0  0  0  0  0  0  0  0  0  0
   10.3621   41.6337  130.4283 C   0  0  0  0  0  0  0  0  0  0  0  0
   10.9631   42.5837  131.3889 C   0  0  0  0  0  0  0  0  0  0  0  0
   11.9480   43.4647  131.0076 C   0  0  0  0  0  0  0  0  0  0  0  0
   12.5299   44.3629  131.8765 C   0  0  0  0  0  0  0  0  0  0  0  0
   12.1090   44.3815  133.1833 C   0  0  0  0  0  0  0  0  0  0  0  0
   11.1283   43.5129  133.5881 C   0  0  0  0  0  0  0  0  0  0  0  0
   10.5447   42.6060  132.6993 C   0  0  0  0  0  0  0  0  0  0  0  0
   10.0702   46.0380  129.0431 C   0  0  0  0  0  0  0  0  0  0  0  0
   10.9090   45.5370  128.0177 O   0  0  0  0  0  0  0  0  0  0  0  0
   10.6597   46.4981  130.0198 O   0  0  0  0  0  0  0  0  0  0  0  0
   11.6653   44.9140  128.2954 H   0  0  0  0  0  0  0  0  0  0  0  0
 18 19  2  0  0  0
 19 22  1  0  0  0
 22 23  1  0  0  0
 23 24  1  0  0  0
 24 25  2  0  0  0
 25 26  1  0  0  0
 26 27  2  0  0  0
 27 28  1  0  0  0
 28 29  2  0  0  0
 19 20  1  0  0  0
 20  1  1  0  0  0
  1  2  1  0  0  0
  2  3  2  0  0  0
  2  4  1  0  0  0
  4  5  1  0  0  0
  5 12  1  0  0  0
 12 13  2  0  0  0
 13 14  1  0  0  0
 14 15  2  0  0  0
 15 16  1  0  0  0
 16 17  2  0  0  0
  5  6  2  0  0  0
  4  7  1  0  0  0
  7  8  1  0  0  0
  7  9  1  0  0  0
  9 10  1  0  0  0
 10 11  1  0  0  0
 11 30  1  0  0  0
 30 31  1  0  0  0
 30 32  2  0  0  0
 29 24  1  0  0  0
 11  1  1  0  0  0
 17 12  1  0  0  0
 20 21  1  0  0  0
 31 33  1  0  0  0
M  END
> <minimizedAffinity>
-2.20352

> <CNNscore>
0.1546313763

> <CNNaffinity>
6.6164255142

> <CNN_VS>
1.0231069326

> <CNNaffinity_variance>
0.0791981369

$$$$
[H]OC(=O)[C@]1([H])C([H])([H])S[C@]([H])(C([H])([H])[H])N(C(=O)c2c([H])c([H])c([H])c([H])c2[H])C(=O)[C@]1([H])N([H])C(=O)OC([H])([H])c1c([H])c([H])c([H])c([H])c1[H]


 33 35  0  0  0  0  0  0  0  0999 V2000
   10.1742   47.1589  129.9939 C   0  0  0  0  0  0  0  0  0  0  0  0
   10.9306   46.6186  131.1136 C   0  0  0  0  0  0  0  0  0  0  0  0
   11.2179   47.4297  132.0690 O   0  0  0  0  0  0  0  0  0  0  0  0
   11.4661   45.2913  131.4026 N   0  0  0  0  0  0  0  0  0  0  0  0
   11.2351   44.7176  132.6541 C   0  0  0  0  0  0  0  0  0  0  0  0
   11.8852   43.6017  132.8413 O   0  0  0  0  0  0  0  0  0  0  0  0
   12.2477   44.5860  130.4335 C   0  0  0  0  0  0  0  0  0  0  0  0
   13.2161   43.5558  130.8447 C   0  0  0  0  0  0  0  0  0  0  0  0
   11.0008   43.8956  129.2455 S   0  0  0  0  0  0  0  0  0  0  0  0
   10.4679   45.3313  128.2642 C   0  0  0  0  0  0  0  0  0  0  0  0
    9.5165   46.2331  129.0539 C   0  0  0  0  0  0  0  0  0  0  0  0
   10.4331   45.0960  133.7839 C   0  0  0  0  0  0  0  0  0  0  0  0
    9.0435   45.2797  133.5378 C   0  0  0  0  0  0  0  0  0  0  0  0
    8.1708   45.7100  134.4973 C   0  0  0  0  0  0  0  0  0  0  0  0
    8.6491   45.9782  135.7545 C   0  0  0  0  0  0  0  0  0  0  0  0
    9.9863   45.8090  136.0150 C   0  0  0  0  0  0  0  0  0  0  0  0
   10.8575   45.3778  135.0479 C   0  0  0  0  0  0  0  0  0  0  0  0
   10.6445   49.9247  130.3994 O   0  0  0  0  0  0  0  0  0  0  0  0
    9.4906   49.5072  130.6396 C   0  0  0  0  0  0  0  0  0  0  0  0
    9.1863   48.1322  130.4576 N   0  0  0  0  0  0  0  0  0  0  0  0
    8.2031   47.8328  130.6761 H   0  0  0  0  0  0  0  0  0  0  0  0
    8.5378   50.3811  131.0741 O   0  0  0  0  0  0  0  0  0  0  0  0
    7.4466   50.8767  130.3394 C   0  0  0  0  0  0  0  0  0  0  0  0
    6.8054   49.7573  129.6166 C   0  0  0  0  0  0  0  0  0  0  0  0
    5.6460   49.1763  130.0746 C   0  0  0  0  0  0  0  0  0  0  0  0
    5.0222   48.1317  129.4264 C   0  0  0  0  0  0  0  0  0  0  0  0
    5.5816   47.6469  128.2700 C   0  0  0  0  0  0  0  0  0  0  0  0
    6.7374   48.2093  127.7928 C   0  0  0  0  0  0  0  0  0  0  0  0
    7.3621   49.2680  128.4576 C   0  0  0  0  0  0  0  0  0  0  0  0
    8.3375   45.5007  129.4718 C   0  0  0  0  0  0  0  0  0  0  0  0
    8.0389   44.2914  128.7975 O   0  0  0  0  0  0  0  0  0  0  0  0
    7.5460   45.8100  130.3612 O   0  0  0  0  0  0  0  0  0  0  0  0
    7.0817   44.1602  128.4753 H   0  0  0  0  0  0  0  0  0  0  0  0
 18 19  2  0  0  0
 19 22  1  0  0  0
 22 23  1  0  0  0
 23 24  1  0  0  0
 24 25  2  0  0  0
 25 26  1  0  0  0
 26 27  2  0  0  0
 27 28  1  0  0  0
 28 29  2  0  0  0
 19 20  1  0  0  0
 20  1  1  0  0  0
  1  2  1  0  0  0
  2  3  2  0  0  0
  2  4  1  0  0  0
  4  5  1  0  0  0
  5 12  1  0  0  0
 12 13  2  0  0  0
 13 14  1  0  0  0
 14 15  2  0  0  0
 15 16  1  0  0  0
 16 17  2  0  0  0
  5  6  2  0  0  0
  4  7  1  0  0  0
  7  8  1  0  0  0
  7  9  1  0  0  0
  9 10  1  0  0  0
 10 11  1  0  0  0
 11 30  1  0  0  0
 30 31  1  0  0  0
 30 32  2  0  0  0
 29 24  1  0  0  0
 11  1  1  0  0  0
 17 12  1  0  0  0
 20 21  1  0  0  0
 31 33  1  0  0  0
M  END
> <minimizedAffinity>
-2.36192

> <CNNscore>
0.1427967250

> <CNNaffinity>
6.6477861404

> <CNN_VS>
0.9492821097

> <CNNaffinity_variance>
0.1263718903

$$$$
[H]OC(=O)[C@]1([H])C([H])([H])S[C@]([H])(C([H])([H])[H])N(C(=O)c2c([H])c([H])c([H])c([H])c2[H])C(=O)[C@]1([H])N([H])C(=O)OC([H])([H])c1c([H])c([H])c([H])c([H])c1[H]


 33 35  0  0  0  0  0  0  0  0999 V2000
   10.5175   46.0379  129.2599 C   0  0  0  0  0  0  0  0  0  0  0  0
   10.7612   46.3837  130.6523 C   0  0  0  0  0  0  0  0  0  0  0  0
   10.1760   47.4362  131.1030 O   0  0  0  0  0  0  0  0  0  0  0  0
   11.5692   45.7692  131.7019 N   0  0  0  0  0  0  0  0  0  0  0  0
   11.0045   45.5479  132.9593 C   0  0  0  0  0  0  0  0  0  0  0  0
   11.8645   45.1328  133.8486 O   0  0  0  0  0  0  0  0  0  0  0  0
   12.9370   45.4199  131.4683 C   0  0  0  0  0  0  0  0  0  0  0  0
   13.8947   45.3193  132.5823 C   0  0  0  0  0  0  0  0  0  0  0  0
   12.8533   43.8317  130.5127 S   0  0  0  0  0  0  0  0  0  0  0  0
   12.3471   44.3363  128.8403 C   0  0  0  0  0  0  0  0  0  0  0  0
   10.8582   44.6854  128.7824 C   0  0  0  0  0  0  0  0  0  0  0  0
    9.6745   45.6816  133.4847 C   0  0  0  0  0  0  0  0  0  0  0  0
    9.4214   46.8384  134.2741 C   0  0  0  0  0  0  0  0  0  0  0  0
    8.2273   47.0630  134.8993 C   0  0  0  0  0  0  0  0  0  0  0  0
    7.2247   46.1368  134.7637 C   0  0  0  0  0  0  0  0  0  0  0  0
    7.4463   45.0126  134.0076 C   0  0  0  0  0  0  0  0  0  0  0  0
    8.6470   44.7920  133.3833 C   0  0  0  0  0  0  0  0  0  0  0  0
    8.2113   45.0726  130.5957 O   0  0  0  0  0  0  0  0  0  0  0  0
    8.0219   45.8102  129.6040 C   0  0  0  0  0  0  0  0  0  0  0  0
    9.1334   46.3286  128.8885 N   0  0  0  0  0  0  0  0  0  0  0  0
    8.9196   46.9408  128.0617 H   0  0  0  0  0  0  0  0  0  0  0  0
    6.7465   46.1073  129.2226 O   0  0  0  0  0  0  0  0  0  0  0  0
    5.8959   47.0705  129.7926 C   0  0  0  0  0  0  0  0  0  0  0  0
    6.6315   48.3470  129.9191 C   0  0  0  0  0  0  0  0  0  0  0  0
    7.4247   48.6142  131.0105 C   0  0  0  0  0  0  0  0  0  0  0  0
    8.1236   49.7929  131.1606 C   0  0  0  0  0  0  0  0  0  0  0  0
    8.0255   50.7460  130.1771 C   0  0  0  0  0  0  0  0  0  0  0  0
    7.2410   50.5034  129.0790 C   0  0  0  0  0  0  0  0  0  0  0  0
    6.5364   49.3050  128.9364 C   0  0  0  0  0  0  0  0  0  0  0  0
   10.0459   43.5543  129.1852 C   0  0  0  0  0  0  0  0  0  0  0  0
   10.1071   43.1479  130.5406 O   0  0  0  0  0  0  0  0  0  0  0  0
    9.2931   42.8888  128.4756 O   0  0  0  0  0  0  0  0  0  0  0  0
   10.2391   42.1551  130.7253 H   0  0  0  0  0  0  0  0  0  0  0  0
 18 19  2  0  0  0
 19 22  1  0  0  0
 22 23  1  0  0  0
 23 24  1  0  0  0
 24 25  2  0  0  0
 25 26  1  0  0  0
 26 27  2  0  0  0
 27 28  1  0  0  0
 28 29  2  0  0  0
 19 20  1  0  0  0
 20  1  1  0  0  0
  1  2  1  0  0  0
  2  3  2  0  0  0
  2  4  1  0  0  0
  4  5  1  0  0  0
  5 12  1  0  0  0
 12 13  2  0  0  0
 13 14  1  0  0  0
 14 15  2  0  0  0
 15 16  1  0  0  0
 16 17  2  0  0  0
  5  6  2  0  0  0
  4  7  1  0  0  0
  7  8  1  0  0  0
  7  9  1  0  0  0
  9 10  1  0  0  0
 10 11  1  0  0  0
 11 30  1  0  0  0
 30 31  1  0  0  0
 30 32  2  0  0  0
 29 24  1  0  0  0
 11  1  1  0  0  0
 17 12  1  0  0  0
 20 21  1  0  0  0
 31 33  1  0  0  0
M  END
> <minimizedAffinity>
-0.71364

> <CNNscore>
0.1377246231

> <CNNaffinity>
6.5601768494

> <CNN_VS>
0.9034978747

> <CNNaffinity_variance>
0.0818920955

$$$$
[H]OC(=O)C([H])([H])[C@]([H])(O[H])[C@@]([H])(C(=O)O[H])N([H])C(=O)[C@@]([H])(N([H])C(=O)[C@@]([H])(N([H])C(=O)[C@@]([H])(N([H])C(=O)C([H])([H])[C@]([H])(O[H])[C@@]([H])(N([H])C(=O)[C@@]([H])(N([H])C(=O)C([H])([H])[H])C([H])(C([H])([H])[H])C([H])([H])[H])C([H])([H])C([H])(C([H])([H])[H])C([H])([H])[H])C([H])([H])[H])C([H])([H])C([H])(C([H])([H])[H])C([H])([H])[H])C([H])([H])C([H])(C([H])([H])[H])C([H])([H])[H]


 63 62  0  0  0  0  0  0  0  0999 V2000
    6.9373   49.1427  130.0408 N   0  0  0  0  0  0  0  0  0  0  0  0
    7.1868   50.0243  129.0094 C   0  0  0  0  0  0  0  0  0  0  0  0
    7.1528   49.7734  127.8049 O   0  0  0  0  0  0  0  0  0  0  0  0
    7.0461   49.6077  131.0594 H   0  0  0  0  0  0  0  0  0  0  0  0
    7.5325   51.4371  129.4081 C   0  0  0  0  0  0  0  0  0  0  0  0
    7.3546   51.6246  130.8870 C   0  0  0  0  0  0  0  0  0  0  0  0
    6.8282   52.4189  128.6784 N   0  0  0  0  0  0  0  0  0  0  0  0
    7.3712   52.9707  127.4746 C   0  0  0  0  0  0  0  0  0  0  0  0
    8.4683   52.5431  127.0593 O   0  0  0  0  0  0  0  0  0  0  0  0
    5.8873   52.7711  129.0062 H   0  0  0  0  0  0  0  0  0  0  0  0
    6.5980   54.0379  126.7753 C   0  0  0  0  0  0  0  0  0  0  0  0
    7.4353   54.6785  125.7436 C   0  0  0  0  0  0  0  0  0  0  0  0
    7.8839   55.9342  126.2167 O   0  0  0  0  0  0  0  0  0  0  0  0
    8.2870   56.4706  125.4947 H   0  0  0  0  0  0  0  0  0  0  0  0
    6.5991   55.0230  124.4831 C   0  0  0  0  0  0  0  0  0  0  0  0
    5.2967   55.4902  124.8625 N   0  0  0  0  0  0  0  0  0  0  0  0
    4.0446   54.9618  124.5378 C   0  0  0  0  0  0  0  0  0  0  0  0
    3.9062   53.9082  123.8017 O   0  0  0  0  0  0  0  0  0  0  0  0
    5.2271   56.3721  125.4972 H   0  0  0  0  0  0  0  0  0  0  0  0
    2.7583   55.5370  124.9828 C   0  0  0  0  0  0  0  0  0  0  0  0
    1.9659   54.6382  125.7496 N   0  0  0  0  0  0  0  0  0  0  0  0
    2.2142   53.3687  126.2740 C   0  0  0  0  0  0  0  0  0  0  0  0
    3.2439   52.6813  126.1812 O   0  0  0  0  0  0  0  0  0  0  0  0
    1.1047   52.7079  127.0714 C   0  0  0  0  0  0  0  0  0  0  0  0
    0.9488   54.9958  125.9823 H   0  0  0  0  0  0  0  0  0  0  0  0
    2.8298   56.9642  125.4268 C   0  0  0  0  0  0  0  0  0  0  0  0
    2.5145   57.2522  126.8487 C   0  0  0  0  0  0  0  0  0  0  0  0
    1.9242   57.8396  124.5465 C   0  0  0  0  0  0  0  0  0  0  0  0
    7.3806   55.9647  123.6209 C   0  0  0  0  0  0  0  0  0  0  0  0
    7.5834   55.4338  122.2442 C   0  0  0  0  0  0  0  0  0  0  0  0
    7.7531   53.9446  122.1504 C   0  0  0  0  0  0  0  0  0  0  0  0
    8.8564   56.0246  121.6113 C   0  0  0  0  0  0  0  0  0  0  0  0
    6.5720   47.7645  130.0942 C   0  0  0  0  0  0  0  0  0  0  0  0
    7.8036   47.0105  130.5074 C   0  0  0  0  0  0  0  0  0  0  0  0
    8.5970   46.6158  129.6149 O   0  0  0  0  0  0  0  0  0  0  0  0
    8.1067   46.7468  131.8519 N   0  0  0  0  0  0  0  0  0  0  0  0
    7.3542   47.1053  132.5463 H   0  0  0  0  0  0  0  0  0  0  0  0
    9.2491   46.0741  132.3659 C   0  0  0  0  0  0  0  0  0  0  0  0
    9.7374   45.0426  131.3936 C   0  0  0  0  0  0  0  0  0  0  0  0
    9.2016   43.8787  131.4319 O   0  0  0  0  0  0  0  0  0  0  0  0
   10.7549   45.3227  130.4683 N   0  0  0  0  0  0  0  0  0  0  0  0
   11.1721   46.2979  130.4737 H   0  0  0  0  0  0  0  0  0  0  0  0
   11.2690   44.3671  129.5110 C   0  0  0  0  0  0  0  0  0  0  0  0
   10.0759   43.6409  128.9234 C   0  0  0  0  0  0  0  0  0  0  0  0
    9.7318   42.3796  129.2932 O   0  0  0  0  0  0  0  0  0  0  0  0
    9.3964   44.2661  128.0598 O   0  0  0  0  0  0  0  0  0  0  0  0
   10.0051   41.5012  128.9374 H   0  0  0  0  0  0  0  0  0  0  0  0
   12.0819   43.3404  130.2435 C   0  0  0  0  0  0  0  0  0  0  0  0
   13.4095   43.7697  130.2303 O   0  0  0  0  0  0  0  0  0  0  0  0
   13.7881   43.8090  131.1399 H   0  0  0  0  0  0  0  0  0  0  0  0
   11.6658   43.1595  131.6817 C   0  0  0  0  0  0  0  0  0  0  0  0
   12.6585   43.8736  132.5456 C   0  0  0  0  0  0  0  0  0  0  0  0
   13.4066   43.1623  133.4590 O   0  0  0  0  0  0  0  0  0  0  0  0
   12.8341   45.1379  132.4566 O   0  0  0  0  0  0  0  0  0  0  0  0
   14.3995   43.4285  133.5447 H   0  0  0  0  0  0  0  0  0  0  0  0
    9.0028   45.4223  133.7231 C   0  0  0  0  0  0  0  0  0  0  0  0
   10.1448   45.5660  134.6744 C   0  0  0  0  0  0  0  0  0  0  0  0
    9.5997   46.3133  135.9132 C   0  0  0  0  0  0  0  0  0  0  0  0
   10.4931   44.1845  135.2657 C   0  0  0  0  0  0  0  0  0  0  0  0
    5.8646   47.2075  128.9256 C   0  0  0  0  0  0  0  0  0  0  0  0
    3.6536   46.6899  129.7562 C   0  0  0  0  0  0  0  0  0  0  0  0
    4.4413   47.5101  128.7191 C   0  0  0  0  0  0  0  0  0  0  0  0
    4.0922   48.9646  129.0849 C   0  0  0  0  0  0  0  0  0  0  0  0
 61 62  1  0  0  0
 62 63  1  0  0  0
 62 60  1  0  0  0
 60 33  1  0  0  0
 33  1  1  0  0  0
  1  2  1  0  0  0
  2  3  2  0  0  0
  2  5  1  0  0  0
  5  6  1  0  0  0
  5  7  1  0  0  0
  7  8  1  0  0  0
  8  9  2  0  0  0
  8 11  1  0  0  0
 11 12  1  0  0  0
 12 13  1  0  0  0
 12 15  1  0  0  0
 15 29  1  0  0  0
 29 30  1  0  0  0
 30 31  1  0  0  0
 30 32  1  0  0  0
 15 16  1  0  0  0
 16 17  1  0  0  0
 17 18  2  0  0  0
 17 20  1  0  0  0
 20 21  1  0  0  0
 21 22  1  0  0  0
 22 23  2  0  0  0
 22 24  1  0  0  0
 20 26  1  0  0  0
 26 27  1  0  0  0
 26 28  1  0  0  0
 33 34  1  0  0  0
 34 35  2  0  0  0
 34 36  1  0  0  0
 36 38  1  0  0  0
 38 56  1  0  0  0
 56 57  1  0  0  0
 57 58  1  0  0  0
 57 59  1  0  0  0
 38 39  1  0  0  0
 39 40  2  0  0  0
 39 41  1  0  0  0
 41 43  1  0  0  0
 43 48  1  0  0  0
 48 49  1  0  0  0
 48 51  1  0  0  0
 51 52  1  0  0  0
 52 53  1  0  0  0
 52 54  2  0  0  0
 43 44  1  0  0  0
 44 45  1  0  0  0
 44 46  2  0  0  0
  1  4  1  0  0  0
  7 10  1  0  0  0
 13 14  1  0  0  0
 16 19  1  0  0  0
 21 25  1  0  0  0
 36 37  1  0  0  0
 41 42  1  0  0  0
 49 50  1  0  0  0
 53 55  1  0  0  0
 45 47  1  0  0  0
M  END
> <minimizedAffinity>
4.86750

> <CNNscore>
0.4335793257

> <CNNaffinity>
7.5270471573

> <CNN_VS>
3.2635719776

> <CNNaffinity_variance>
1.4847955704

$$$$
[H]OC(=O)C([H])([H])[C@]([H])(O[H])[C@@]([H])(C(=O)O[H])N([H])C(=O)[C@@]([H])(N([H])C(=O)[C@@]([H])(N([H])C(=O)[C@@]([H])(N([H])C(=O)C([H])([H])[C@]([H])(O[H])[C@@]([H])(N([H])C(=O)[C@@]([H])(N([H])C(=O)C([H])([H])[H])C([H])(C([H])([H])[H])C([H])([H])[H])C([H])([H])C([H])(C([H])([H])[H])C([H])([H])[H])C([H])([H])[H])C([H])([H])C([H])(C([H])([H])[H])C([H])([H])[H])C([H])([H])C([H])(C([H])([H])[H])C([H])([H])[H]


 63 62  0  0  0  0  0  0  0  0999 V2000
    6.4592   50.0437  129.0873 N   0  0  0  0  0  0  0  0  0  0  0  0
    7.1673   48.8690  128.9397 C   0  0  0  0  0  0  0  0  0  0  0  0
    8.3791   48.7181  129.0936 O   0  0  0  0  0  0  0  0  0  0  0  0
    5.3600   49.9298  128.8770 H   0  0  0  0  0  0  0  0  0  0  0  0
    6.3662   47.6511  128.5532 C   0  0  0  0  0  0  0  0  0  0  0  0
    5.0339   47.6567  129.2451 C   0  0  0  0  0  0  0  0  0  0  0  0
    7.0493   46.4343  128.7656 N   0  0  0  0  0  0  0  0  0  0  0  0
    8.3613   46.2250  128.2334 C   0  0  0  0  0  0  0  0  0  0  0  0
    8.9091   47.1534  127.6036 O   0  0  0  0  0  0  0  0  0  0  0  0
    6.6063   45.6499  129.3182 H   0  0  0  0  0  0  0  0  0  0  0  0
    9.0102   44.8999  128.4545 C   0  0  0  0  0  0  0  0  0  0  0  0
   10.3142   45.0777  129.1205 C   0  0  0  0  0  0  0  0  0  0  0  0
   11.3487   44.9785  128.1604 O   0  0  0  0  0  0  0  0  0  0  0  0
   12.2339   44.9056  128.5875 H   0  0  0  0  0  0  0  0  0  0  0  0
   10.5981   43.9152  130.1077 C   0  0  0  0  0  0  0  0  0  0  0  0
   10.6837   44.4128  131.4508 N   0  0  0  0  0  0  0  0  0  0  0  0
   10.4218   45.6990  131.9296 C   0  0  0  0  0  0  0  0  0  0  0  0
   10.0413   46.6628  131.1566 O   0  0  0  0  0  0  0  0  0  0  0  0
   10.9839   43.7254  132.2400 H   0  0  0  0  0  0  0  0  0  0  0  0
   10.5525   46.1021  133.3452 C   0  0  0  0  0  0  0  0  0  0  0  0
   11.7151   45.5845  133.9811 N   0  0  0  0  0  0  0  0  0  0  0  0
   12.1434   44.2852  134.2578 C   0  0  0  0  0  0  0  0  0  0  0  0
   11.5716   43.2122  134.0062 O   0  0  0  0  0  0  0  0  0  0  0  0
   13.4810   44.1191  134.9554 C   0  0  0  0  0  0  0  0  0  0  0  0
   12.4296   46.3457  134.3370 H   0  0  0  0  0  0  0  0  0  0  0  0
   10.1676   47.5195  133.6316 C   0  0  0  0  0  0  0  0  0  0  0  0
   11.1537   48.3604  134.3559 C   0  0  0  0  0  0  0  0  0  0  0  0
    8.8396   47.5629  134.4035 C   0  0  0  0  0  0  0  0  0  0  0  0
    9.5809   42.8370  129.8983 C   0  0  0  0  0  0  0  0  0  0  0  0
    8.6691   42.6861  131.0663 C   0  0  0  0  0  0  0  0  0  0  0  0
    7.6453   41.5943  130.9430 C   0  0  0  0  0  0  0  0  0  0  0  0
    7.8582   43.9740  131.2982 C   0  0  0  0  0  0  0  0  0  0  0  0
    6.8217   51.3757  129.4484 C   0  0  0  0  0  0  0  0  0  0  0  0
    7.2213   52.0703  128.1780 C   0  0  0  0  0  0  0  0  0  0  0  0
    7.6349   51.3751  127.2148 O   0  0  0  0  0  0  0  0  0  0  0  0
    7.1335   53.4623  128.0238 N   0  0  0  0  0  0  0  0  0  0  0  0
    6.7884   53.9779  128.9136 H   0  0  0  0  0  0  0  0  0  0  0  0
    7.4512   54.2269  126.8678 C   0  0  0  0  0  0  0  0  0  0  0  0
    6.4458   55.3202  126.6640 C   0  0  0  0  0  0  0  0  0  0  0  0
    6.5464   56.3726  127.3888 O   0  0  0  0  0  0  0  0  0  0  0  0
    5.4143   55.2085  125.7188 N   0  0  0  0  0  0  0  0  0  0  0  0
    5.3669   54.3191  125.1427 H   0  0  0  0  0  0  0  0  0  0  0  0
    4.4144   56.2274  125.4821 C   0  0  0  0  0  0  0  0  0  0  0  0
    3.4197   56.1472  126.6224 C   0  0  0  0  0  0  0  0  0  0  0  0
    3.3599   57.0798  127.6087 O   0  0  0  0  0  0  0  0  0  0  0  0
    2.6289   55.1607  126.6209 O   0  0  0  0  0  0  0  0  0  0  0  0
    3.8258   57.1385  128.4760 H   0  0  0  0  0  0  0  0  0  0  0  0
    3.6637   55.8845  124.2289 C   0  0  0  0  0  0  0  0  0  0  0  0
    3.3864   57.0805  123.5660 O   0  0  0  0  0  0  0  0  0  0  0  0
    3.7070   57.0625  122.6337 H   0  0  0  0  0  0  0  0  0  0  0  0
    4.4407   54.9998  123.2866 C   0  0  0  0  0  0  0  0  0  0  0  0
    3.6513   53.7462  123.0696 C   0  0  0  0  0  0  0  0  0  0  0  0
    2.7126   53.3593  124.0018 O   0  0  0  0  0  0  0  0  0  0  0  0
    3.8249   53.0186  122.0314 O   0  0  0  0  0  0  0  0  0  0  0  0
    1.8257   52.9849  123.6311 H   0  0  0  0  0  0  0  0  0  0  0  0
    7.5557   53.3846  125.6001 C   0  0  0  0  0  0  0  0  0  0  0  0
    7.8292   54.1840  124.3688 C   0  0  0  0  0  0  0  0  0  0  0  0
    9.1495   54.9482  124.6196 C   0  0  0  0  0  0  0  0  0  0  0  0
    8.2267   53.2331  123.2211 C   0  0  0  0  0  0  0  0  0  0  0  0
    7.7664   51.5381  130.5697 C   0  0  0  0  0  0  0  0  0  0  0  0
    9.4764   50.8939  132.1531 C   0  0  0  0  0  0  0  0  0  0  0  0
    8.5022   50.3733  131.0813 C   0  0  0  0  0  0  0  0  0  0  0  0
    7.5973   49.4085  131.8698 C   0  0  0  0  0  0  0  0  0  0  0  0
 61 62  1  0  0  0
 62 63  1  0  0  0
 62 60  1  0  0  0
 60 33  1  0  0  0
 33  1  1  0  0  0
  1  2  1  0  0  0
  2  3  2  0  0  0
  2  5  1  0  0  0
  5  6  1  0  0  0
  5  7  1  0  0  0
  7  8  1  0  0  0
  8  9  2  0  0  0
  8 11  1  0  0  0
 11 12  1  0  0  0
 12 13  1  0  0  0
 12 15  1  0  0  0
 15 29  1  0  0  0
 29 30  1  0  0  0
 30 31  1  0  0  0
 30 32  1  0  0  0
 15 16  1  0  0  0
 16 17  1  0  0  0
 17 18  2  0  0  0
 17 20  1  0  0  0
 20 21  1  0  0  0
 21 22  1  0  0  0
 22 23  2  0  0  0
 22 24  1  0  0  0
 20 26  1  0  0  0
 26 27  1  0  0  0
 26 28  1  0  0  0
 33 34  1  0  0  0
 34 35  2  0  0  0
 34 36  1  0  0  0
 36 38  1  0  0  0
 38 56  1  0  0  0
 56 57  1  0  0  0
 57 58  1  0  0  0
 57 59  1  0  0  0
 38 39  1  0  0  0
 39 40  2  0  0  0
 39 41  1  0  0  0
 41 43  1  0  0  0
 43 48  1  0  0  0
 48 49  1  0  0  0
 48 51  1  0  0  0
 51 52  1  0  0  0
 52 53  1  0  0  0
 52 54  2  0  0  0
 43 44  1  0  0  0
 44 45  1  0  0  0
 44 46  2  0  0  0
  1  4  1  0  0  0
  7 10  1  0  0  0
 13 14  1  0  0  0
 16 19  1  0  0  0
 21 25  1  0  0  0
 36 37  1  0  0  0
 41 42  1  0  0  0
 49 50  1  0  0  0
 53 55  1  0  0  0
 45 47  1  0  0  0
M  END
> <minimizedAffinity>
2.09318

> <CNNscore>
0.4041133821

> <CNNaffinity>
7.4889726639

> <CNN_VS>
3.0263941288

> <CNNaffinity_variance>
0.4167995453

$$$$
[H]OC(=O)C([H])([H])[C@]([H])(O[H])[C@@]([H])(C(=O)O[H])N([H])C(=O)[C@@]([H])(N([H])C(=O)[C@@]([H])(N([H])C(=O)[C@@]([H])(N([H])C(=O)C([H])([H])[C@]([H])(O[H])[C@@]([H])(N([H])C(=O)[C@@]([H])(N([H])C(=O)C([H])([H])[H])C([H])(C([H])([H])[H])C([H])([H])[H])C([H])([H])C([H])(C([H])([H])[H])C([H])([H])[H])C([H])([H])[H])C([H])([H])C([H])(C([H])([H])[H])C([H])([H])[H])C([H])([H])C([H])(C([H])([H])[H])C([H])([H])[H]


 63 62  0  0  0  0  0  0  0  0999 V2000
    7.4423   49.2393  129.1971 N   0  0  0  0  0  0  0  0  0  0  0  0
    8.4624   48.3131  129.1283 C   0  0  0  0  0  0  0  0  0  0  0  0
    9.6458   48.5024  129.4087 O   0  0  0  0  0  0  0  0  0  0  0  0
    6.4463   48.8288  128.8733 H   0  0  0  0  0  0  0  0  0  0  0  0
    8.0781   46.9305  128.6643 C   0  0  0  0  0  0  0  0  0  0  0  0
    6.6695   46.6111  129.0736 C   0  0  0  0  0  0  0  0  0  0  0  0
    8.9747   45.9240  129.0832 N   0  0  0  0  0  0  0  0  0  0  0  0
    9.9355   45.3717  128.1775 C   0  0  0  0  0  0  0  0  0  0  0  0
    9.9913   45.8206  127.0139 O   0  0  0  0  0  0  0  0  0  0  0  0
    8.9540   45.5532  130.0727 H   0  0  0  0  0  0  0  0  0  0  0  0
   10.8233   44.2785  128.6699 C   0  0  0  0  0  0  0  0  0  0  0  0
   11.4083   44.6473  129.9728 C   0  0  0  0  0  0  0  0  0  0  0  0
   12.8189   44.5722  129.8918 O   0  0  0  0  0  0  0  0  0  0  0  0
   13.2366   44.6285  130.7827 H   0  0  0  0  0  0  0  0  0  0  0  0
   11.0337   43.6108  131.0645 C   0  0  0  0  0  0  0  0  0  0  0  0
   10.8077   44.2693  132.3191 N   0  0  0  0  0  0  0  0  0  0  0  0
   10.6146   45.6292  132.5754 C   0  0  0  0  0  0  0  0  0  0  0  0
   10.6164   46.5189  131.6375 O   0  0  0  0  0  0  0  0  0  0  0  0
   10.7663   43.6630  133.2225 H   0  0  0  0  0  0  0  0  0  0  0  0
   10.3968   46.1992  133.9212 C   0  0  0  0  0  0  0  0  0  0  0  0
   11.5677   46.7652  134.4977 N   0  0  0  0  0  0  0  0  0  0  0  0
   12.8912   46.3283  134.5740 C   0  0  0  0  0  0  0  0  0  0  0  0
   13.3847   45.2759  134.1378 O   0  0  0  0  0  0  0  0  0  0  0  0
   13.8908   47.2316  135.2728 C   0  0  0  0  0  0  0  0  0  0  0  0
   11.4196   47.7406  134.9908 H   0  0  0  0  0  0  0  0  0  0  0  0
    9.1051   46.9358  134.0886 C   0  0  0  0  0  0  0  0  0  0  0  0
    8.7038   47.3026  135.4701 C   0  0  0  0  0  0  0  0  0  0  0  0
    7.9553   46.1425  133.4483 C   0  0  0  0  0  0  0  0  0  0  0  0
    9.8908   42.7771  130.5750 C   0  0  0  0  0  0  0  0  0  0  0  0
    8.6864   42.9050  131.4418 C   0  0  0  0  0  0  0  0  0  0  0  0
    8.9099   42.6082  132.8969 C   0  0  0  0  0  0  0  0  0  0  0  0
    7.5843   41.9267  130.9961 C   0  0  0  0  0  0  0  0  0  0  0  0
    7.3785   50.6096  129.5896 C   0  0  0  0  0  0  0  0  0  0  0  0
    7.2894   51.4140  128.3243 C   0  0  0  0  0  0  0  0  0  0  0  0
    6.8611   50.8543  127.2825 O   0  0  0  0  0  0  0  0  0  0  0  0
    7.6506   52.7689  128.2689 N   0  0  0  0  0  0  0  0  0  0  0  0
    8.0287   53.1574  129.2086 H   0  0  0  0  0  0  0  0  0  0  0  0
    7.5823   53.6378  127.1455 C   0  0  0  0  0  0  0  0  0  0  0  0
    6.2894   54.3968  127.1417 C   0  0  0  0  0  0  0  0  0  0  0  0
    5.8474   54.8375  128.2614 O   0  0  0  0  0  0  0  0  0  0  0  0
    5.5675   54.6206  125.9590 N   0  0  0  0  0  0  0  0  0  0  0  0
    5.9685   54.2357  125.0557 H   0  0  0  0  0  0  0  0  0  0  0  0
    4.3140   55.3408  125.8955 C   0  0  0  0  0  0  0  0  0  0  0  0
    3.3025   54.4162  125.2489 C   0  0  0  0  0  0  0  0  0  0  0  0
    3.5068   53.8422  124.0345 O   0  0  0  0  0  0  0  0  0  0  0  0
    2.2397   54.1918  125.8960 O   0  0  0  0  0  0  0  0  0  0  0  0
    3.2892   54.1534  123.1242 H   0  0  0  0  0  0  0  0  0  0  0  0
    4.4780   56.5137  124.9741 C   0  0  0  0  0  0  0  0  0  0  0  0
    3.2513   56.7267  124.3443 O   0  0  0  0  0  0  0  0  0  0  0  0
    2.9404   57.6555  124.4580 H   0  0  0  0  0  0  0  0  0  0  0  0
    4.8630   57.7867  125.6853 C   0  0  0  0  0  0  0  0  0  0  0  0
    4.1581   57.8121  127.0059 C   0  0  0  0  0  0  0  0  0  0  0  0
    2.7806   57.8434  127.0453 O   0  0  0  0  0  0  0  0  0  0  0  0
    4.8059   57.8035  128.1094 O   0  0  0  0  0  0  0  0  0  0  0  0
    2.3291   57.2546  127.7620 H   0  0  0  0  0  0  0  0  0  0  0  0
    7.7544   52.9133  125.8140 C   0  0  0  0  0  0  0  0  0  0  0  0
    7.9765   53.8296  124.6560 C   0  0  0  0  0  0  0  0  0  0  0  0
    9.0978   54.8088  125.0730 C   0  0  0  0  0  0  0  0  0  0  0  0
    8.6488   53.0481  123.5086 C   0  0  0  0  0  0  0  0  0  0  0  0
    8.3864   51.0826  130.5575 C   0  0  0  0  0  0  0  0  0  0  0  0
    7.3826   49.3768  131.9464 C   0  0  0  0  0  0  0  0  0  0  0  0
    8.4557   50.4789  131.8957 C   0  0  0  0  0  0  0  0  0  0  0  0
    9.7661   49.7021  132.1211 C   0  0  0  0  0  0  0  0  0  0  0  0
 61 62  1  0  0  0
 62 63  1  0  0  0
 62 60  1  0  0  0
 60 33  1  0  0  0
 33  1  1  0  0  0
  1  2  1  0  0  0
  2  3  2  0  0  0
  2  5  1  0  0  0
  5  6  1  0  0  0
  5  7  1  0  0  0
  7  8  1  0  0  0
  8  9  2  0  0  0
  8 11  1  0  0  0
 11 12  1  0  0  0
 12 13  1  0  0  0
 12 15  1  0  0  0
 15 29  1  0  0  0
 29 30  1  0  0  0
 30 31  1  0  0  0
 30 32  1  0  0  0
 15 16  1  0  0  0
 16 17  1  0  0  0
 17 18  2  0  0  0
 17 20  1  0  0  0
 20 21  1  0  0  0
 21 22  1  0  0  0
 22 23  2  0  0  0
 22 24  1  0  0  0
 20 26  1  0  0  0
 26 27  1  0  0  0
 26 28  1  0  0  0
 33 34  1  0  0  0
 34 35  2  0  0  0
 34 36  1  0  0  0
 36 38  1  0  0  0
 38 56  1  0  0  0
 56 57  1  0  0  0
 57 58  1  0  0  0
 57 59  1  0  0  0
 38 39  1  0  0  0
 39 40  2  0  0  0
 39 41  1  0  0  0
 41 43  1  0  0  0
 43 48  1  0  0  0
 48 49  1  0  0  0
 48 51  1  0  0  0
 51 52  1  0  0  0
 52 53  1  0  0  0
 52 54  2  0  0  0
 43 44  1  0  0  0
 44 45  1  0  0  0
 44 46  2  0  0  0
  1  4  1  0  0  0
  7 10  1  0  0  0
 13 14  1  0  0  0
 16 19  1  0  0  0
 21 25  1  0  0  0
 36 37  1  0  0  0
 41 42  1  0  0  0
 49 50  1  0  0  0
 53 55  1  0  0  0
 45 47  1  0  0  0
M  END
> <minimizedAffinity>
6.46268

> <CNNscore>
0.3529469371

> <CNNaffinity>
7.4631767273

> <CNN_VS>
2.6341054440

> <CNNaffinity_variance>
0.3411636949

$$$$
[H]OC(=O)C([H])([H])[C@]([H])(O[H])[C@@]([H])(C(=O)O[H])N([H])C(=O)[C@@]([H])(N([H])C(=O)[C@@]([H])(N([H])C(=O)[C@@]([H])(N([H])C(=O)C([H])([H])[C@]([H])(O[H])[C@@]([H])(N([H])C(=O)[C@@]([H])(N([H])C(=O)C([H])([H])[H])C([H])(C([H])([H])[H])C([H])([H])[H])C([H])([H])C([H])(C([H])([H])[H])C([H])([H])[H])C([H])([H])[H])C([H])([H])C([H])(C([H])([H])[H])C([H])([H])[H])C([H])([H])C([H])(C([H])([H])[H])C([H])([H])[H]


 63 62  0  0  0  0  0  0  0  0999 V2000
    7.8329   48.5152  131.4301 N   0  0  0  0  0  0  0  0  0  0  0  0
    8.1813   49.6890  130.7945 C   0  0  0  0  0  0  0  0  0  0  0  0
    9.2708   50.2588  130.8508 O   0  0  0  0  0  0  0  0  0  0  0  0
    6.7703   48.2021  131.2347 H   0  0  0  0  0  0  0  0  0  0  0  0
    7.1130   50.3300  129.9445 C   0  0  0  0  0  0  0  0  0  0  0  0
    5.9590   49.3891  129.7525 C   0  0  0  0  0  0  0  0  0  0  0  0
    7.5901   50.8155  128.7079 N   0  0  0  0  0  0  0  0  0  0  0  0
    7.3338   52.1628  128.2988 C   0  0  0  0  0  0  0  0  0  0  0  0
    6.7071   52.9165  129.0721 O   0  0  0  0  0  0  0  0  0  0  0  0
    8.1431   50.1947  128.0555 H   0  0  0  0  0  0  0  0  0  0  0  0
    7.8261   52.6002  126.9600 C   0  0  0  0  0  0  0  0  0  0  0  0
    7.5097   54.0244  126.7430 C   0  0  0  0  0  0  0  0  0  0  0  0
    6.1974   54.2885  127.2013 O   0  0  0  0  0  0  0  0  0  0  0  0
    5.8822   55.1748  126.9071 H   0  0  0  0  0  0  0  0  0  0  0  0
    7.4589   54.3588  125.2290 C   0  0  0  0  0  0  0  0  0  0  0  0
    6.1025   54.5691  124.8112 N   0  0  0  0  0  0  0  0  0  0  0  0
    5.3438   55.7418  124.8473 C   0  0  0  0  0  0  0  0  0  0  0  0
    5.8149   56.8592  125.2955 O   0  0  0  0  0  0  0  0  0  0  0  0
    5.5518   53.7269  124.3954 H   0  0  0  0  0  0  0  0  0  0  0  0
    3.9409   55.8392  124.3934 C   0  0  0  0  0  0  0  0  0  0  0  0
    3.5770   54.8424  123.4460 N   0  0  0  0  0  0  0  0  0  0  0  0
    4.2610   54.2545  122.3806 C   0  0  0  0  0  0  0  0  0  0  0  0
    5.4138   54.4838  121.9809 O   0  0  0  0  0  0  0  0  0  0  0  0
    3.5350   53.1877  121.5817 C   0  0  0  0  0  0  0  0  0  0  0  0
    2.5535   54.4464  123.5560 H   0  0  0  0  0  0  0  0  0  0  0  0
    2.9565   56.1798  125.4677 C   0  0  0  0  0  0  0  0  0  0  0  0
    3.3690   57.1896  126.4748 C   0  0  0  0  0  0  0  0  0  0  0  0
    2.5226   54.9075  126.2121 C   0  0  0  0  0  0  0  0  0  0  0  0
    8.3889   55.4979  124.9488 C   0  0  0  0  0  0  0  0  0  0  0  0
    9.0547   55.3704  123.6225 C   0  0  0  0  0  0  0  0  0  0  0  0
    8.9761   56.5876  122.7466 C   0  0  0  0  0  0  0  0  0  0  0  0
    8.4175   54.2382  122.7964 C   0  0  0  0  0  0  0  0  0  0  0  0
    8.5311   47.6115  132.2856 C   0  0  0  0  0  0  0  0  0  0  0  0
    9.5722   46.9373  131.4384 C   0  0  0  0  0  0  0  0  0  0  0  0
    9.4913   47.0403  130.1875 O   0  0  0  0  0  0  0  0  0  0  0  0
   10.6380   46.2128  131.9936 N   0  0  0  0  0  0  0  0  0  0  0  0
   10.6113   46.1604  133.0769 H   0  0  0  0  0  0  0  0  0  0  0  0
   11.6949   45.5604  131.3014 C   0  0  0  0  0  0  0  0  0  0  0  0
   11.1790   44.3712  130.5482 C   0  0  0  0  0  0  0  0  0  0  0  0
   11.5813   43.2092  130.9102 O   0  0  0  0  0  0  0  0  0  0  0  0
   10.2887   44.5077  129.4718 N   0  0  0  0  0  0  0  0  0  0  0  0
    9.9844   45.4880  129.2043 H   0  0  0  0  0  0  0  0  0  0  0  0
    9.7622   43.3983  128.7062 C   0  0  0  0  0  0  0  0  0  0  0  0
    8.9019   43.9861  127.6060 C   0  0  0  0  0  0  0  0  0  0  0  0
    8.8836   43.4838  126.3437 O   0  0  0  0  0  0  0  0  0  0  0  0
    8.1847   44.9811  127.9130 O   0  0  0  0  0  0  0  0  0  0  0  0
    9.4338   43.6947  125.5528 H   0  0  0  0  0  0  0  0  0  0  0  0
    8.8496   42.5954  129.5860 C   0  0  0  0  0  0  0  0  0  0  0  0
    9.5870   41.5216  130.0858 O   0  0  0  0  0  0  0  0  0  0  0  0
    9.5488   41.4808  131.0702 H   0  0  0  0  0  0  0  0  0  0  0  0
    8.3082   43.3737  130.7588 C   0  0  0  0  0  0  0  0  0  0  0  0
    7.7941   42.3947  131.7683 C   0  0  0  0  0  0  0  0  0  0  0  0
    8.1641   42.5180  133.0903 O   0  0  0  0  0  0  0  0  0  0  0  0
    7.0118   41.4389  131.4339 O   0  0  0  0  0  0  0  0  0  0  0  0
    7.4251   42.3513  133.7905 H   0  0  0  0  0  0  0  0  0  0  0  0
   12.8375   45.1307  132.2163 C   0  0  0  0  0  0  0  0  0  0  0  0
   12.7778   45.7399  133.5783 C   0  0  0  0  0  0  0  0  0  0  0  0
   13.7267   46.9603  133.5612 C   0  0  0  0  0  0  0  0  0  0  0  0
   11.4029   46.4103  133.7776 C   0  0  0  0  0  0  0  0  0  0  0  0
    7.7180   46.7008  133.1137 C   0  0  0  0  0  0  0  0  0  0  0  0
    9.0602   45.3791  134.6295 C   0  0  0  0  0  0  0  0  0  0  0  0
    8.0371   46.5252  134.5375 C   0  0  0  0  0  0  0  0  0  0  0  0
    8.8045   47.7270  135.1188 C   0  0  0  0  0  0  0  0  0  0  0  0
 61 62  1  0  0  0
 62 63  1  0  0  0
 62 60  1  0  0  0
 60 33  1  0  0  0
 33  1  1  0  0  0
  1  2  1  0  0  0
  2  3  2  0  0  0
  2  5  1  0  0  0
  5  6  1  0  0  0
  5  7  1  0  0  0
  7  8  1  0  0  0
  8  9  2  0  0  0
  8 11  1  0  0  0
 11 12  1  0  0  0
 12 13  1  0  0  0
 12 15  1  0  0  0
 15 29  1  0  0  0
 29 30  1  0  0  0
 30 31  1  0  0  0
 30 32  1  0  0  0
 15 16  1  0  0  0
 16 17  1  0  0  0
 17 18  2  0  0  0
 17 20  1  0  0  0
 20 21  1  0  0  0
 21 22  1  0  0  0
 22 23  2  0  0  0
 22 24  1  0  0  0
 20 26  1  0  0  0
 26 27  1  0  0  0
 26 28  1  0  0  0
 33 34  1  0  0  0
 34 35  2  0  0  0
 34 36  1  0  0  0
 36 38  1  0  0  0
 38 56  1  0  0  0
 56 57  1  0  0  0
 57 58  1  0  0  0
 57 59  1  0  0  0
 38 39  1  0  0  0
 39 40  2  0  0  0
 39 41  1  0  0  0
 41 43  1  0  0  0
 43 48  1  0  0  0
 48 49  1  0  0  0
 48 51  1  0  0  0
 51 52  1  0  0  0
 52 53  1  0  0  0
 52 54  2  0  0  0
 43 44  1  0  0  0
 44 45  1  0  0  0
 44 46  2  0  0  0
  1  4  1  0  0  0
  7 10  1  0  0  0
 13 14  1  0  0  0
 16 19  1  0  0  0
 21 25  1  0  0  0
 36 37  1  0  0  0
 41 42  1  0  0  0
 49 50  1  0  0  0
 53 55  1  0  0  0
 45 47  1  0  0  0
M  END
> <minimizedAffinity>
1.33303

> <CNNscore>
0.3483890593

> <CNNaffinity>
7.4332704544

> <CNN_VS>
2.5896701813

> <CNNaffinity_variance>
0.2043670118

$$$$
[H]OC(=O)C([H])([H])[C@]([H])(O[H])[C@@]([H])(C(=O)O[H])N([H])C(=O)[C@@]([H])(N([H])C(=O)[C@@]([H])(N([H])C(=O)[C@@]([H])(N([H])C(=O)C([H])([H])[C@]([H])(O[H])[C@@]([H])(N([H])C(=O)[C@@]([H])(N([H])C(=O)C([H])([H])[H])C([H])(C([H])([H])[H])C([H])([H])[H])C([H])([H])C([H])(C([H])([H])[H])C([H])([H])[H])C([H])([H])[H])C([H])([H])C([H])(C([H])([H])[H])C([H])([H])[H])C([H])([H])C([H])(C([H])([H])[H])C([H])([H])[H]


 63 62  0  0  0  0  0  0  0  0999 V2000
    6.7846   48.4802  130.0198 N   0  0  0  0  0  0  0  0  0  0  0  0
    7.3329   49.1726  128.9599 C   0  0  0  0  0  0  0  0  0  0  0  0
    7.6718   48.7039  127.8735 O   0  0  0  0  0  0  0  0  0  0  0  0
    6.5726   49.1297  130.9134 H   0  0  0  0  0  0  0  0  0  0  0  0
    7.5303   50.6542  129.1615 C   0  0  0  0  0  0  0  0  0  0  0  0
    6.6816   51.1480  130.2972 C   0  0  0  0  0  0  0  0  0  0  0  0
    7.3177   51.4170  127.9930 N   0  0  0  0  0  0  0  0  0  0  0  0
    7.1323   52.8344  128.0638 C   0  0  0  0  0  0  0  0  0  0  0  0
    7.1958   53.3935  129.1783 O   0  0  0  0  0  0  0  0  0  0  0  0
    7.2866   50.9587  127.0412 H   0  0  0  0  0  0  0  0  0  0  0  0
    6.8663   53.5760  126.7969 C   0  0  0  0  0  0  0  0  0  0  0  0
    8.1055   54.2114  126.3106 C   0  0  0  0  0  0  0  0  0  0  0  0
    8.3780   55.3628  127.0865 O   0  0  0  0  0  0  0  0  0  0  0  0
    9.0861   55.9146  126.6798 H   0  0  0  0  0  0  0  0  0  0  0  0
    7.9227   54.7573  124.8701 C   0  0  0  0  0  0  0  0  0  0  0  0
    6.5752   55.2109  124.6772 N   0  0  0  0  0  0  0  0  0  0  0  0
    5.5885   54.6990  123.8308 C   0  0  0  0  0  0  0  0  0  0  0  0
    5.7928   53.6771  123.0656 O   0  0  0  0  0  0  0  0  0  0  0  0
    6.2284   56.0658  125.2555 H   0  0  0  0  0  0  0  0  0  0  0  0
    4.2260   55.2576  123.7082 C   0  0  0  0  0  0  0  0  0  0  0  0
    3.3708   54.4967  122.8636 N   0  0  0  0  0  0  0  0  0  0  0  0
    3.4807   54.0760  121.5372 C   0  0  0  0  0  0  0  0  0  0  0  0
    4.4023   54.2874  120.7325 O   0  0  0  0  0  0  0  0  0  0  0  0
    2.3455   53.2461  120.9662 C   0  0  0  0  0  0  0  0  0  0  0  0
    2.4267   54.1686  123.3300 H   0  0  0  0  0  0  0  0  0  0  0  0
    3.6545   55.8013  124.9798 C   0  0  0  0  0  0  0  0  0  0  0  0
    4.5659   56.5738  125.8610 C   0  0  0  0  0  0  0  0  0  0  0  0
    3.0310   54.6673  125.8085 C   0  0  0  0  0  0  0  0  0  0  0  0
    8.9784   55.7835  124.5989 C   0  0  0  0  0  0  0  0  0  0  0  0
    9.2074   55.9867  123.1413 C   0  0  0  0  0  0  0  0  0  0  0  0
   10.6477   56.0213  122.7178 C   0  0  0  0  0  0  0  0  0  0  0  0
    8.6188   57.3313  122.6767 C   0  0  0  0  0  0  0  0  0  0  0  0
    6.4296   47.1140  130.2279 C   0  0  0  0  0  0  0  0  0  0  0  0
    7.7160   46.3591  130.4045 C   0  0  0  0  0  0  0  0  0  0  0  0
    8.7173   46.9710  130.8573 O   0  0  0  0  0  0  0  0  0  0  0  0
    7.8340   44.9947  130.0984 N   0  0  0  0  0  0  0  0  0  0  0  0
    6.9265   44.5593  129.6937 H   0  0  0  0  0  0  0  0  0  0  0  0
    8.9820   44.1695  130.2503 C   0  0  0  0  0  0  0  0  0  0  0  0
    9.2824   43.9434  131.7016 C   0  0  0  0  0  0  0  0  0  0  0  0
    8.9178   42.8316  132.2252 O   0  0  0  0  0  0  0  0  0  0  0  0
    9.9350   44.9116  132.4805 N   0  0  0  0  0  0  0  0  0  0  0  0
   10.2163   45.8182  132.0073 H   0  0  0  0  0  0  0  0  0  0  0  0
   10.2465   44.7509  133.8845 C   0  0  0  0  0  0  0  0  0  0  0  0
    9.2811   45.6268  134.6570 C   0  0  0  0  0  0  0  0  0  0  0  0
    9.6536   46.3356  135.7547 O   0  0  0  0  0  0  0  0  0  0  0  0
    8.0914   45.6768  134.2322 O   0  0  0  0  0  0  0  0  0  0  0  0
    9.6613   46.0951  136.7112 H   0  0  0  0  0  0  0  0  0  0  0  0
   11.6217   45.2948  134.1387 C   0  0  0  0  0  0  0  0  0  0  0  0
   12.2291   44.4719  135.0876 O   0  0  0  0  0  0  0  0  0  0  0  0
   13.1001   44.1341  134.7720 H   0  0  0  0  0  0  0  0  0  0  0  0
   12.4966   45.3130  132.9105 C   0  0  0  0  0  0  0  0  0  0  0  0
   12.5676   43.9185  132.3703 C   0  0  0  0  0  0  0  0  0  0  0  0
   12.8185   43.7163  131.0301 O   0  0  0  0  0  0  0  0  0  0  0  0
   12.4021   42.8997  133.1267 O   0  0  0  0  0  0  0  0  0  0  0  0
   13.4604   42.9437  130.7954 H   0  0  0  0  0  0  0  0  0  0  0  0
   10.2189   44.7261  129.5521 C   0  0  0  0  0  0  0  0  0  0  0  0
   10.9488   43.7168  128.7285 C   0  0  0  0  0  0  0  0  0  0  0  0
    9.9729   43.2575  127.6209 C   0  0  0  0  0  0  0  0  0  0  0  0
   12.0473   44.4250  127.9092 C   0  0  0  0  0  0  0  0  0  0  0  0
    5.4800   46.5101  129.2740 C   0  0  0  0  0  0  0  0  0  0  0  0
    3.2243   46.4861  130.1444 C   0  0  0  0  0  0  0  0  0  0  0  0
    4.1513   47.1092  129.0855 C   0  0  0  0  0  0  0  0  0  0  0  0
    4.1286   48.6079  129.4388 C   0  0  0  0  0  0  0  0  0  0  0  0
 61 62  1  0  0  0
 62 63  1  0  0  0
 62 60  1  0  0  0
 60 33  1  0  0  0
 33  1  1  0  0  0
  1  2  1  0  0  0
  2  3  2  0  0  0
  2  5  1  0  0  0
  5  6  1  0  0  0
  5  7  1  0  0  0
  7  8  1  0  0  0
  8  9  2  0  0  0
  8 11  1  0  0  0
 11 12  1  0  0  0
 12 13  1  0  0  0
 12 15  1  0  0  0
 15 29  1  0  0  0
 29 30  1  0  0  0
 30 31  1  0  0  0
 30 32  1  0  0  0
 15 16  1  0  0  0
 16 17  1  0  0  0
 17 18  2  0  0  0
 17 20  1  0  0  0
 20 21  1  0  0  0
 21 22  1  0  0  0
 22 23  2  0  0  0
 22 24  1  0  0  0
 20 26  1  0  0  0
 26 27  1  0  0  0
 26 28  1  0  0  0
 33 34  1  0  0  0
 34 35  2  0  0  0
 34 36  1  0  0  0
 36 38  1  0  0  0
 38 56  1  0  0  0
 56 57  1  0  0  0
 57 58  1  0  0  0
 57 59  1  0  0  0
 38 39  1  0  0  0
 39 40  2  0  0  0
 39 41  1  0  0  0
 41 43  1  0  0  0
 43 48  1  0  0  0
 48 49  1  0  0  0
 48 51  1  0  0  0
 51 52  1  0  0  0
 52 53  1  0  0  0
 52 54  2  0  0  0
 43 44  1  0  0  0
 44 45  1  0  0  0
 44 46  2  0  0  0
  1  4  1  0  0  0
  7 10  1  0  0  0
 13 14  1  0  0  0
 16 19  1  0  0  0
 21 25  1  0  0  0
 36 37  1  0  0  0
 41 42  1  0  0  0
 49 50  1  0  0  0
 53 55  1  0  0  0
 45 47  1  0  0  0
M  END
> <minimizedAffinity>
2.55652

> <CNNscore>
0.3403947949

> <CNNaffinity>
7.5662941933

> <CNN_VS>
2.5755271912

> <CNNaffinity_variance>
0.6615881920

$$$$
[H]OC(=O)C([H])([H])[C@]([H])(O[H])[C@@]([H])(C(=O)O[H])N([H])C(=O)[C@@]([H])(N([H])C(=O)[C@@]([H])(N([H])C(=O)[C@@]([H])(N([H])C(=O)C([H])([H])[C@]([H])(O[H])[C@@]([H])(N([H])C(=O)[C@@]([H])(N([H])C(=O)C([H])([H])[H])C([H])(C([H])([H])[H])C([H])([H])[H])C([H])([H])C([H])(C([H])([H])[H])C([H])([H])[H])C([H])([H])[H])C([H])([H])C([H])(C([H])([H])[H])C([H])([H])[H])C([H])([H])C([H])(C([H])([H])[H])C([H])([H])[H]


 63 62  0  0  0  0  0  0  0  0999 V2000
    6.4761   50.4114  128.8864 N   0  0  0  0  0  0  0  0  0  0  0  0
    7.1655   49.2466  128.6194 C   0  0  0  0  0  0  0  0  0  0  0  0
    8.3878   49.1133  128.5639 O   0  0  0  0  0  0  0  0  0  0  0  0
    5.3589   50.2813  128.8669 H   0  0  0  0  0  0  0  0  0  0  0  0
    6.3278   48.0165  128.3752 C   0  0  0  0  0  0  0  0  0  0  0  0
    4.9122   48.3996  128.0540 C   0  0  0  0  0  0  0  0  0  0  0  0
    6.3788   47.0793  129.4294 N   0  0  0  0  0  0  0  0  0  0  0  0
    7.5521   46.2919  129.6571 C   0  0  0  0  0  0  0  0  0  0  0  0
    8.5477   46.4722  128.9256 O   0  0  0  0  0  0  0  0  0  0  0  0
    5.5514   46.9351  130.0709 H   0  0  0  0  0  0  0  0  0  0  0  0
    7.5252   45.2866  130.7592 C   0  0  0  0  0  0  0  0  0  0  0  0
    8.3125   44.0979  130.3815 C   0  0  0  0  0  0  0  0  0  0  0  0
    8.0613   43.0560  131.3053 O   0  0  0  0  0  0  0  0  0  0  0  0
    8.7022   42.3148  131.1988 H   0  0  0  0  0  0  0  0  0  0  0  0
    9.8334   44.3707  130.5194 C   0  0  0  0  0  0  0  0  0  0  0  0
   10.1821   44.5587  131.8984 N   0  0  0  0  0  0  0  0  0  0  0  0
   10.8209   45.6443  132.5031 C   0  0  0  0  0  0  0  0  0  0  0  0
   11.1993   46.6855  131.8367 O   0  0  0  0  0  0  0  0  0  0  0  0
    9.9259   43.7747  132.6093 H   0  0  0  0  0  0  0  0  0  0  0  0
   11.1386   45.7254  133.9439 C   0  0  0  0  0  0  0  0  0  0  0  0
   10.0962   46.2942  134.7271 N   0  0  0  0  0  0  0  0  0  0  0  0
    9.1042   47.2344  134.4432 C   0  0  0  0  0  0  0  0  0  0  0  0
    8.8919   47.8372  133.3788 O   0  0  0  0  0  0  0  0  0  0  0  0
    8.1358   47.5928  135.5555 C   0  0  0  0  0  0  0  0  0  0  0  0
   10.0488   45.9375  135.7697 H   0  0  0  0  0  0  0  0  0  0  0  0
   11.8618   44.5366  134.4944 C   0  0  0  0  0  0  0  0  0  0  0  0
   12.9195   43.9300  133.6474 C   0  0  0  0  0  0  0  0  0  0  0  0
   10.8597   43.4354  134.8746 C   0  0  0  0  0  0  0  0  0  0  0  0
   10.5899   43.2847  129.8200 C   0  0  0  0  0  0  0  0  0  0  0  0
   11.6082   43.8235  128.8760 C   0  0  0  0  0  0  0  0  0  0  0  0
   12.7690   44.5268  129.5187 C   0  0  0  0  0  0  0  0  0  0  0  0
   10.9816   44.8634  127.9293 C   0  0  0  0  0  0  0  0  0  0  0  0
    6.8758   51.7491  129.1806 C   0  0  0  0  0  0  0  0  0  0  0  0
    7.2739   52.3745  127.8743 C   0  0  0  0  0  0  0  0  0  0  0  0
    7.5468   51.6224  126.9038 O   0  0  0  0  0  0  0  0  0  0  0  0
    7.3354   53.7650  127.6954 N   0  0  0  0  0  0  0  0  0  0  0  0
    7.1056   54.3299  128.5926 H   0  0  0  0  0  0  0  0  0  0  0  0
    7.6672   54.4710  126.5066 C   0  0  0  0  0  0  0  0  0  0  0  0
    6.7972   55.6819  126.3503 C   0  0  0  0  0  0  0  0  0  0  0  0
    7.3495   56.8351  126.4411 O   0  0  0  0  0  0  0  0  0  0  0  0
    5.4169   55.5750  126.1193 N   0  0  0  0  0  0  0  0  0  0  0  0
    5.0013   54.6014  126.0543 H   0  0  0  0  0  0  0  0  0  0  0  0
    4.5283   56.7067  125.9653 C   0  0  0  0  0  0  0  0  0  0  0  0
    4.2428   57.2398  127.3547 C   0  0  0  0  0  0  0  0  0  0  0  0
    5.2246   57.6684  128.1904 O   0  0  0  0  0  0  0  0  0  0  0  0
    3.0313   57.2741  127.7145 O   0  0  0  0  0  0  0  0  0  0  0  0
    5.7631   57.1857  128.8611 H   0  0  0  0  0  0  0  0  0  0  0  0
    3.2208   56.2212  125.4117 C   0  0  0  0  0  0  0  0  0  0  0  0
    3.1950   56.5433  124.0543 O   0  0  0  0  0  0  0  0  0  0  0  0
    3.0112   55.7516  123.4961 H   0  0  0  0  0  0  0  0  0  0  0  0
    3.0309   54.7306  125.5398 C   0  0  0  0  0  0  0  0  0  0  0  0
    3.2984   54.1119  124.2029 C   0  0  0  0  0  0  0  0  0  0  0  0
    4.5519   54.2170  123.6393 O   0  0  0  0  0  0  0  0  0  0  0  0
    2.3867   53.4808  123.5643 O   0  0  0  0  0  0  0  0  0  0  0  0
    4.9140   53.3745  123.1667 H   0  0  0  0  0  0  0  0  0  0  0  0
    7.5761   53.6096  125.2508 C   0  0  0  0  0  0  0  0  0  0  0  0
    7.7720   54.3737  123.9829 C   0  0  0  0  0  0  0  0  0  0  0  0
    9.1817   55.0042  124.0574 C   0  0  0  0  0  0  0  0  0  0  0  0
    7.9291   53.3843  122.8100 C   0  0  0  0  0  0  0  0  0  0  0  0
    7.8400   51.9395  130.2807 C   0  0  0  0  0  0  0  0  0  0  0  0
    6.7814   49.9590  131.1770 C   0  0  0  0  0  0  0  0  0  0  0  0
    7.9922   50.9001  131.3085 C   0  0  0  0  0  0  0  0  0  0  0  0
    9.1889   49.9717  131.0307 C   0  0  0  0  0  0  0  0  0  0  0  0
 61 62  1  0  0  0
 62 63  1  0  0  0
 62 60  1  0  0  0
 60 33  1  0  0  0
 33  1  1  0  0  0
  1  2  1  0  0  0
  2  3  2  0  0  0
  2  5  1  0  0  0
  5  6  1  0  0  0
  5  7  1  0  0  0
  7  8  1  0  0  0
  8  9  2  0  0  0
  8 11  1  0  0  0
 11 12  1  0  0  0
 12 13  1  0  0  0
 12 15  1  0  0  0
 15 29  1  0  0  0
 29 30  1  0  0  0
 30 31  1  0  0  0
 30 32  1  0  0  0
 15 16  1  0  0  0
 16 17  1  0  0  0
 17 18  2  0  0  0
 17 20  1  0  0  0
 20 21  1  0  0  0
 21 22  1  0  0  0
 22 23  2  0  0  0
 22 24  1  0  0  0
 20 26  1  0  0  0
 26 27  1  0  0  0
 26 28  1  0  0  0
 33 34  1  0  0  0
 34 35  2  0  0  0
 34 36  1  0  0  0
 36 38  1  0  0  0
 38 56  1  0  0  0
 56 57  1  0  0  0
 57 58  1  0  0  0
 57 59  1  0  0  0
 38 39  1  0  0  0
 39 40  2  0  0  0
 39 41  1  0  0  0
 41 43  1  0  0  0
 43 48  1  0  0  0
 48 49  1  0  0  0
 48 51  1  0  0  0
 51 52  1  0  0  0
 52 53  1  0  0  0
 52 54  2  0  0  0
 43 44  1  0  0  0
 44 45  1  0  0  0
 44 46  2  0  0  0
  1  4  1  0  0  0
  7 10  1  0  0  0
 13 14  1  0  0  0
 16 19  1  0  0  0
 21 25  1  0  0  0
 36 37  1  0  0  0
 41 42  1  0  0  0
 49 50  1  0  0  0
 53 55  1  0  0  0
 45 47  1  0  0  0
M  END
> <minimizedAffinity>
0.33165

> <CNNscore>
0.3351271451

> <CNNaffinity>
7.4316229820

> <CNN_VS>
2.4905385971

> <CNNaffinity_variance>
0.1435198039

$$$$
[H]OC(=O)C([H])([H])[C@]([H])(O[H])[C@@]([H])(C(=O)O[H])N([H])C(=O)[C@@]([H])(N([H])C(=O)[C@@]([H])(N([H])C(=O)[C@@]([H])(N([H])C(=O)C([H])([H])[C@]([H])(O[H])[C@@]([H])(N([H])C(=O)[C@@]([H])(N([H])C(=O)C([H])([H])[H])C([H])(C([H])([H])[H])C([H])([H])[H])C([H])([H])C([H])(C([H])([H])[H])C([H])([H])[H])C([H])([H])[H])C([H])([H])C([H])(C([H])([H])[H])C([H])([H])[H])C([H])([H])C([H])(C([H])([H])[H])C([H])([H])[H]


 63 62  0  0  0  0  0  0  0  0999 V2000
    9.0214   46.8357  129.4553 N   0  0  0  0  0  0  0  0  0  0  0  0
    9.9439   46.1132  128.7270 C   0  0  0  0  0  0  0  0  0  0  0  0
   10.9640   46.5502  128.1951 O   0  0  0  0  0  0  0  0  0  0  0  0
    8.1625   46.2123  129.8283 H   0  0  0  0  0  0  0  0  0  0  0  0
    9.6669   44.6384  128.5755 C   0  0  0  0  0  0  0  0  0  0  0  0
    9.1827   44.3342  127.1874 C   0  0  0  0  0  0  0  0  0  0  0  0
    8.7842   44.1258  129.5504 N   0  0  0  0  0  0  0  0  0  0  0  0
    9.0690   42.8972  130.2269 C   0  0  0  0  0  0  0  0  0  0  0  0
   10.1333   42.2997  129.9643 O   0  0  0  0  0  0  0  0  0  0  0  0
    7.8922   44.6350  129.7994 H   0  0  0  0  0  0  0  0  0  0  0  0
    8.0729   42.3866  131.2132 C   0  0  0  0  0  0  0  0  0  0  0  0
    7.5734   43.4938  132.0500 C   0  0  0  0  0  0  0  0  0  0  0  0
    7.6114   44.6974  131.3072 O   0  0  0  0  0  0  0  0  0  0  0  0
    7.4643   45.4836  131.8831 H   0  0  0  0  0  0  0  0  0  0  0  0
    8.5214   43.7564  133.2496 C   0  0  0  0  0  0  0  0  0  0  0  0
    9.8592   43.9874  132.7851 N   0  0  0  0  0  0  0  0  0  0  0  0
   10.3873   45.1164  132.1535 C   0  0  0  0  0  0  0  0  0  0  0  0
    9.6751   46.1643  131.8967 O   0  0  0  0  0  0  0  0  0  0  0  0
   10.6009   43.2037  132.9305 H   0  0  0  0  0  0  0  0  0  0  0  0
   11.7908   45.2401  131.7083 C   0  0  0  0  0  0  0  0  0  0  0  0
   12.6494   45.8218  132.6821 N   0  0  0  0  0  0  0  0  0  0  0  0
   12.9429   45.4883  134.0053 C   0  0  0  0  0  0  0  0  0  0  0  0
   12.4895   44.5545  134.6864 O   0  0  0  0  0  0  0  0  0  0  0  0
   13.9459   46.3559  134.7435 C   0  0  0  0  0  0  0  0  0  0  0  0
   13.1972   46.7178  132.3447 H   0  0  0  0  0  0  0  0  0  0  0  0
   12.3055   44.0733  130.9256 C   0  0  0  0  0  0  0  0  0  0  0  0
   12.7987   42.9020  131.6932 C   0  0  0  0  0  0  0  0  0  0  0  0
   13.4204   44.5259  129.9698 C   0  0  0  0  0  0  0  0  0  0  0  0
    7.9490   44.8520  134.0940 C   0  0  0  0  0  0  0  0  0  0  0  0
    8.9875   45.8210  134.5420 C   0  0  0  0  0  0  0  0  0  0  0  0
    9.6854   45.4654  135.8233 C   0  0  0  0  0  0  0  0  0  0  0  0
    8.3701   47.2090  134.7919 C   0  0  0  0  0  0  0  0  0  0  0  0
    8.9208   48.2069  129.8365 C   0  0  0  0  0  0  0  0  0  0  0  0
    7.9628   48.8499  128.8748 C   0  0  0  0  0  0  0  0  0  0  0  0
    7.5894   48.1959  127.8674 O   0  0  0  0  0  0  0  0  0  0  0  0
    7.4587   50.1448  129.0701 N   0  0  0  0  0  0  0  0  0  0  0  0
    7.8544   50.6376  129.9518 H   0  0  0  0  0  0  0  0  0  0  0  0
    6.5299   50.8447  128.2520 C   0  0  0  0  0  0  0  0  0  0  0  0
    6.9642   52.2661  128.0555 C   0  0  0  0  0  0  0  0  0  0  0  0
    7.0996   53.0029  129.0957 O   0  0  0  0  0  0  0  0  0  0  0  0
    7.2116   52.7932  126.7784 N   0  0  0  0  0  0  0  0  0  0  0  0
    7.0843   52.1490  125.9454 H   0  0  0  0  0  0  0  0  0  0  0  0
    7.6276   54.1564  126.5280 C   0  0  0  0  0  0  0  0  0  0  0  0
    6.3812   55.0168  126.5732 C   0  0  0  0  0  0  0  0  0  0  0  0
    5.1961   54.6173  126.0421 O   0  0  0  0  0  0  0  0  0  0  0  0
    6.4861   56.1434  127.1373 O   0  0  0  0  0  0  0  0  0  0  0  0
    4.8207   54.7262  125.1366 H   0  0  0  0  0  0  0  0  0  0  0  0
    8.1651   54.2474  125.1300 C   0  0  0  0  0  0  0  0  0  0  0  0
    7.6763   53.1496  124.4208 O   0  0  0  0  0  0  0  0  0  0  0  0
    7.2160   53.4264  123.5940 H   0  0  0  0  0  0  0  0  0  0  0  0
    7.7387   55.4980  124.4030 C   0  0  0  0  0  0  0  0  0  0  0  0
    8.8573   56.4894  124.4892 C   0  0  0  0  0  0  0  0  0  0  0  0
    9.3107   56.9031  125.7234 O   0  0  0  0  0  0  0  0  0  0  0  0
    9.4103   56.9659  123.4383 O   0  0  0  0  0  0  0  0  0  0  0  0
   10.3323   57.0021  125.8269 H   0  0  0  0  0  0  0  0  0  0  0  0
    5.1060   50.8154  128.7989 C   0  0  0  0  0  0  0  0  0  0  0  0
    4.9355   49.9205  129.9821 C   0  0  0  0  0  0  0  0  0  0  0  0
    5.0607   48.4695  129.4634 C   0  0  0  0  0  0  0  0  0  0  0  0
    6.1739   50.0390  130.8941 C   0  0  0  0  0  0  0  0  0  0  0  0
   10.1814   48.9442  130.0450 C   0  0  0  0  0  0  0  0  0  0  0  0
    9.1996   50.4636  131.6493 C   0  0  0  0  0  0  0  0  0  0  0  0
   10.4378   49.6063  131.3318 C   0  0  0  0  0  0  0  0  0  0  0  0
   10.4836   48.6098  132.5049 C   0  0  0  0  0  0  0  0  0  0  0  0
 61 62  1  0  0  0
 62 63  1  0  0  0
 62 60  1  0  0  0
 60 33  1  0  0  0
 33  1  1  0  0  0
  1  2  1  0  0  0
  2  3  2  0  0  0
  2  5  1  0  0  0
  5  6  1  0  0  0
  5  7  1  0  0  0
  7  8  1  0  0  0
  8  9  2  0  0  0
  8 11  1  0  0  0
 11 12  1  0  0  0
 12 13  1  0  0  0
 12 15  1  0  0  0
 15 29  1  0  0  0
 29 30  1  0  0  0
 30 31  1  0  0  0
 30 32  1  0  0  0
 15 16  1  0  0  0
 16 17  1  0  0  0
 17 18  2  0  0  0
 17 20  1  0  0  0
 20 21  1  0  0  0
 21 22  1  0  0  0
 22 23  2  0  0  0
 22 24  1  0  0  0
 20 26  1  0  0  0
 26 27  1  0  0  0
 26 28  1  0  0  0
 33 34  1  0  0  0
 34 35  2  0  0  0
 34 36  1  0  0  0
 36 38  1  0  0  0
 38 56  1  0  0  0
 56 57  1  0  0  0
 57 58  1  0  0  0
 57 59  1  0  0  0
 38 39  1  0  0  0
 39 40  2  0  0  0
 39 41  1  0  0  0
 41 43  1  0  0  0
 43 48  1  0  0  0
 48 49  1  0  0  0
 48 51  1  0  0  0
 51 52  1  0  0  0
 52 53  1  0  0  0
 52 54  2  0  0  0
 43 44  1  0  0  0
 44 45  1  0  0  0
 44 46  2  0  0  0
  1  4  1  0  0  0
  7 10  1  0  0  0
 13 14  1  0  0  0
 16 19  1  0  0  0
 21 25  1  0  0  0
 36 37  1  0  0  0
 41 42  1  0  0  0
 49 50  1  0  0  0
 53 55  1  0  0  0
 45 47  1  0  0  0
M  END
> <minimizedAffinity>
3.15007

> <CNNscore>
0.3193198740

> <CNNaffinity>
7.8216362000

> <CNN_VS>
2.4976038933

> <CNNaffinity_variance>
0.2621978819

$$$$
[H]OC(=O)C([H])([H])[C@]([H])(O[H])[C@@]([H])(C(=O)O[H])N([H])C(=O)[C@@]([H])(N([H])C(=O)[C@@]([H])(N([H])C(=O)[C@@]([H])(N([H])C(=O)C([H])([H])[C@]([H])(O[H])[C@@]([H])(N([H])C(=O)[C@@]([H])(N([H])C(=O)C([H])([H])[H])C([H])(C([H])([H])[H])C([H])([H])[H])C([H])([H])C([H])(C([H])([H])[H])C([H])([H])[H])C([H])([H])[H])C([H])([H])C([H])(C([H])([H])[H])C([H])([H])[H])C([H])([H])C([H])(C([H])([H])[H])C([H])([H])[H]


 63 62  0  0  0  0  0  0  0  0999 V2000
    9.5110   47.3315  129.9075 N   0  0  0  0  0  0  0  0  0  0  0  0
   10.4721   46.9385  128.9992 C   0  0  0  0  0  0  0  0  0  0  0  0
   11.1534   47.6751  128.2864 O   0  0  0  0  0  0  0  0  0  0  0  0
    9.0127   46.4685  130.4293 H   0  0  0  0  0  0  0  0  0  0  0  0
   10.7065   45.4537  128.8764 C   0  0  0  0  0  0  0  0  0  0  0  0
   10.4499   44.9952  127.4701 C   0  0  0  0  0  0  0  0  0  0  0  0
    9.9737   44.6868  129.8077 N   0  0  0  0  0  0  0  0  0  0  0  0
    8.5443   44.6368  129.7561 C   0  0  0  0  0  0  0  0  0  0  0  0
    7.9539   45.2585  128.8486 O   0  0  0  0  0  0  0  0  0  0  0  0
   10.4632   44.1362  130.5654 H   0  0  0  0  0  0  0  0  0  0  0  0
    7.8272   43.8446  130.7974 C   0  0  0  0  0  0  0  0  0  0  0  0
    7.3096   44.7395  131.8494 C   0  0  0  0  0  0  0  0  0  0  0  0
    7.2636   46.0652  131.3569 O   0  0  0  0  0  0  0  0  0  0  0  0
    7.1026   46.7151  132.0801 H   0  0  0  0  0  0  0  0  0  0  0  0
    8.2898   44.8129  133.0496 C   0  0  0  0  0  0  0  0  0  0  0  0
    9.5115   44.1286  132.7368 N   0  0  0  0  0  0  0  0  0  0  0  0
   10.0416   42.9703  133.3109 C   0  0  0  0  0  0  0  0  0  0  0  0
    9.4442   42.3323  134.2634 O   0  0  0  0  0  0  0  0  0  0  0  0
   10.1409   44.5285  131.9434 H   0  0  0  0  0  0  0  0  0  0  0  0
   11.3238   42.3550  132.9097 C   0  0  0  0  0  0  0  0  0  0  0  0
   11.1823   41.3157  131.9487 N   0  0  0  0  0  0  0  0  0  0  0  0
   10.3762   41.1757  130.8178 C   0  0  0  0  0  0  0  0  0  0  0  0
    9.5369   41.9696  130.3631 O   0  0  0  0  0  0  0  0  0  0  0  0
   10.5156   39.8993  130.0085 C   0  0  0  0  0  0  0  0  0  0  0  0
   11.8257   40.4356  132.1159 H   0  0  0  0  0  0  0  0  0  0  0  0
   12.4559   43.3188  132.7402 C   0  0  0  0  0  0  0  0  0  0  0  0
   12.5977   44.3895  133.7589 C   0  0  0  0  0  0  0  0  0  0  0  0
   12.3870   43.9795  131.3546 C   0  0  0  0  0  0  0  0  0  0  0  0
    8.4551   46.2435  133.4586 C   0  0  0  0  0  0  0  0  0  0  0  0
    9.4168   46.4014  134.5849 C   0  0  0  0  0  0  0  0  0  0  0  0
    8.9935   47.3621  135.6588 C   0  0  0  0  0  0  0  0  0  0  0  0
   10.7700   46.9336  134.0792 C   0  0  0  0  0  0  0  0  0  0  0  0
    9.0102   48.5999  130.3273 C   0  0  0  0  0  0  0  0  0  0  0  0
    8.2155   49.1489  129.1770 C   0  0  0  0  0  0  0  0  0  0  0  0
    8.0880   48.4458  128.1419 O   0  0  0  0  0  0  0  0  0  0  0  0
    7.5984   50.4083  129.2240 N   0  0  0  0  0  0  0  0  0  0  0  0
    7.7827   50.9492  130.1462 H   0  0  0  0  0  0  0  0  0  0  0  0
    6.8007   51.0195  128.2181 C   0  0  0  0  0  0  0  0  0  0  0  0
    7.0549   52.4961  128.1661 C   0  0  0  0  0  0  0  0  0  0  0  0
    6.9782   53.1585  129.2608 O   0  0  0  0  0  0  0  0  0  0  0  0
    7.3607   53.1512  126.9631 N   0  0  0  0  0  0  0  0  0  0  0  0
    7.4109   52.5648  126.0807 H   0  0  0  0  0  0  0  0  0  0  0  0
    7.6104   54.5722  126.8517 C   0  0  0  0  0  0  0  0  0  0  0  0
    6.2851   55.2325  126.5301 C   0  0  0  0  0  0  0  0  0  0  0  0
    5.9916   56.5055  126.9037 O   0  0  0  0  0  0  0  0  0  0  0  0
    5.4452   54.5414  125.8855 O   0  0  0  0  0  0  0  0  0  0  0  0
    5.5772   56.8622  127.7245 H   0  0  0  0  0  0  0  0  0  0  0  0
    8.5099   54.8130  125.6750 C   0  0  0  0  0  0  0  0  0  0  0  0
    8.6128   53.6113  124.9734 O   0  0  0  0  0  0  0  0  0  0  0  0
    8.3769   53.7239  124.0226 H   0  0  0  0  0  0  0  0  0  0  0  0
    7.9889   55.8627  124.7258 C   0  0  0  0  0  0  0  0  0  0  0  0
    7.8171   55.2281  123.3806 C   0  0  0  0  0  0  0  0  0  0  0  0
    6.6820   54.4941  123.1107 O   0  0  0  0  0  0  0  0  0  0  0  0
    8.7030   55.3515  122.4656 O   0  0  0  0  0  0  0  0  0  0  0  0
    6.2663   54.6204  122.1751 H   0  0  0  0  0  0  0  0  0  0  0  0
    5.3075   50.7630  128.3967 C   0  0  0  0  0  0  0  0  0  0  0  0
    4.9739   49.9937  129.6324 C   0  0  0  0  0  0  0  0  0  0  0  0
    5.3495   48.5202  129.3533 C   0  0  0  0  0  0  0  0  0  0  0  0
    5.9686   50.3679  130.7504 C   0  0  0  0  0  0  0  0  0  0  0  0
    9.9751   49.5435  130.9230 C   0  0  0  0  0  0  0  0  0  0  0  0
    8.3720   49.5374  132.7331 C   0  0  0  0  0  0  0  0  0  0  0  0
    9.7040   50.1320  132.2422 C   0  0  0  0  0  0  0  0  0  0  0  0
   10.7104   49.6653  133.3102 C   0  0  0  0  0  0  0  0  0  0  0  0
 61 62  1  0  0  0
 62 63  1  0  0  0
 62 60  1  0  0  0
 60 33  1  0  0  0
 33  1  1  0  0  0
  1  2  1  0  0  0
  2  3  2  0  0  0
  2  5  1  0  0  0
  5  6  1  0  0  0
  5  7  1  0  0  0
  7  8  1  0  0  0
  8  9  2  0  0  0
  8 11  1  0  0  0
 11 12  1  0  0  0
 12 13  1  0  0  0
 12 15  1  0  0  0
 15 29  1  0  0  0
 29 30  1  0  0  0
 30 31  1  0  0  0
 30 32  1  0  0  0
 15 16  1  0  0  0
 16 17  1  0  0  0
 17 18  2  0  0  0
 17 20  1  0  0  0
 20 21  1  0  0  0
 21 22  1  0  0  0
 22 23  2  0  0  0
 22 24  1  0  0  0
 20 26  1  0  0  0
 26 27  1  0  0  0
 26 28  1  0  0  0
 33 34  1  0  0  0
 34 35  2  0  0  0
 34 36  1  0  0  0
 36 38  1  0  0  0
 38 56  1  0  0  0
 56 57  1  0  0  0
 57 58  1  0  0  0
 57 59  1  0  0  0
 38 39  1  0  0  0
 39 40  2  0  0  0
 39 41  1  0  0  0
 41 43  1  0  0  0
 43 48  1  0  0  0
 48 49  1  0  0  0
 48 51  1  0  0  0
 51 52  1  0  0  0
 52 53  1  0  0  0
 52 54  2  0  0  0
 43 44  1  0  0  0
 44 45  1  0  0  0
 44 46  2  0  0  0
  1  4  1  0  0  0
  7 10  1  0  0  0
 13 14  1  0  0  0
 16 19  1  0  0  0
 21 25  1  0  0  0
 36 37  1  0  0  0
 41 42  1  0  0  0
 49 50  1  0  0  0
 53 55  1  0  0  0
 45 47  1  0  0  0
M  END
> <minimizedAffinity>
4.53827

> <CNNscore>
0.2959254980

> <CNNaffinity>
7.5335378647

> <CNN_VS>
2.2293658257

> <CNNaffinity_variance>
0.1785642356

$$$$
[H]OC(=O)C([H])([H])[C@]([H])(O[H])[C@@]([H])(C(=O)O[H])N([H])C(=O)[C@@]([H])(N([H])C(=O)[C@@]([H])(N([H])C(=O)[C@@]([H])(N([H])C(=O)C([H])([H])[C@]([H])(O[H])[C@@]([H])(N([H])C(=O)[C@@]([H])(N([H])C(=O)C([H])([H])[H])C([H])(C([H])([H])[H])C([H])([H])[H])C([H])([H])C([H])(C([H])([H])[H])C([H])([H])[H])C([H])([H])[H])C([H])([H])C([H])(C([H])([H])[H])C([H])([H])[H])C([H])([H])C([H])(C([H])([H])[H])C([H])([H])[H]


 63 62  0  0  0  0  0  0  0  0999 V2000
    9.7870   47.4872  128.9352 N   0  0  0  0  0  0  0  0  0  0  0  0
   10.7124   46.5028  129.2143 C   0  0  0  0  0  0  0  0  0  0  0  0
   11.2574   46.2937  130.2978 O   0  0  0  0  0  0  0  0  0  0  0  0
    9.4450   47.4851  127.8635 H   0  0  0  0  0  0  0  0  0  0  0  0
   11.0853   45.5939  128.0700 C   0  0  0  0  0  0  0  0  0  0  0  0
   10.0983   45.7302  126.9470 C   0  0  0  0  0  0  0  0  0  0  0  0
   11.2470   44.2441  128.4497 N   0  0  0  0  0  0  0  0  0  0  0  0
   10.1231   43.3608  128.5215 C   0  0  0  0  0  0  0  0  0  0  0  0
    8.9958   43.7964  128.2083 O   0  0  0  0  0  0  0  0  0  0  0  0
   12.1997   43.8569  128.6933 H   0  0  0  0  0  0  0  0  0  0  0  0
   10.3550   41.9581  128.9739 C   0  0  0  0  0  0  0  0  0  0  0  0
    9.7458   41.7450  130.3001 C   0  0  0  0  0  0  0  0  0  0  0  0
    8.3401   41.8690  130.1961 O   0  0  0  0  0  0  0  0  0  0  0  0
    7.9140   41.9187  131.0834 H   0  0  0  0  0  0  0  0  0  0  0  0
   10.1552   42.8690  131.2878 C   0  0  0  0  0  0  0  0  0  0  0  0
    9.0409   43.7355  131.5451 N   0  0  0  0  0  0  0  0  0  0  0  0
    9.0412   45.0507  132.0168 C   0  0  0  0  0  0  0  0  0  0  0  0
   10.1312   45.6871  132.2961 O   0  0  0  0  0  0  0  0  0  0  0  0
    8.0372   43.3597  131.3534 H   0  0  0  0  0  0  0  0  0  0  0  0
    7.8209   45.8497  132.2534 C   0  0  0  0  0  0  0  0  0  0  0  0
    7.9197   46.7257  133.3699 N   0  0  0  0  0  0  0  0  0  0  0  0
    8.5423   46.6074  134.6136 C   0  0  0  0  0  0  0  0  0  0  0  0
    9.1874   45.6486  135.0676 O   0  0  0  0  0  0  0  0  0  0  0  0
    8.4427   47.7858  135.5649 C   0  0  0  0  0  0  0  0  0  0  0  0
    7.4049   47.6937  133.2498 H   0  0  0  0  0  0  0  0  0  0  0  0
    7.1578   46.3634  131.0143 C   0  0  0  0  0  0  0  0  0  0  0  0
    5.6815   46.5180  131.0454 C   0  0  0  0  0  0  0  0  0  0  0  0
    7.5235   45.4796  129.8116 C   0  0  0  0  0  0  0  0  0  0  0  0
   10.7671   42.2500  132.5058 C   0  0  0  0  0  0  0  0  0  0  0  0
   12.0865   42.8530  132.8436 C   0  0  0  0  0  0  0  0  0  0  0  0
   12.0771   43.8059  134.0043 C   0  0  0  0  0  0  0  0  0  0  0  0
   12.6359   43.6676  131.6584 C   0  0  0  0  0  0  0  0  0  0  0  0
    9.1703   48.5111  129.7143 C   0  0  0  0  0  0  0  0  0  0  0  0
    8.0829   49.1013  128.8627 C   0  0  0  0  0  0  0  0  0  0  0  0
    7.3783   48.3290  128.1632 O   0  0  0  0  0  0  0  0  0  0  0  0
    7.8161   50.4787  128.8336 N   0  0  0  0  0  0  0  0  0  0  0  0
    8.4885   51.0654  129.4504 H   0  0  0  0  0  0  0  0  0  0  0  0
    6.8015   51.1485  128.0963 C   0  0  0  0  0  0  0  0  0  0  0  0
    7.1393   52.5997  127.9299 C   0  0  0  0  0  0  0  0  0  0  0  0
    7.1922   53.3294  128.9825 O   0  0  0  0  0  0  0  0  0  0  0  0
    7.3849   53.1610  126.6672 N   0  0  0  0  0  0  0  0  0  0  0  0
    7.3275   52.5214  125.8231 H   0  0  0  0  0  0  0  0  0  0  0  0
    7.7101   54.5536  126.4457 C   0  0  0  0  0  0  0  0  0  0  0  0
    6.4050   55.3233  126.4656 C   0  0  0  0  0  0  0  0  0  0  0  0
    5.2400   54.8013  126.0005 O   0  0  0  0  0  0  0  0  0  0  0  0
    6.4403   56.4934  126.9433 O   0  0  0  0  0  0  0  0  0  0  0  0
    4.8355   54.8153  125.1011 H   0  0  0  0  0  0  0  0  0  0  0  0
    8.2784   54.7023  125.0649 C   0  0  0  0  0  0  0  0  0  0  0  0
    9.6689   54.6914  125.1806 O   0  0  0  0  0  0  0  0  0  0  0  0
   10.0769   54.0079  124.5987 H   0  0  0  0  0  0  0  0  0  0  0  0
    7.8808   53.5888  124.1288 C   0  0  0  0  0  0  0  0  0  0  0  0
    7.0888   54.1858  123.0071 C   0  0  0  0  0  0  0  0  0  0  0  0
    7.7337   54.6120  121.8659 O   0  0  0  0  0  0  0  0  0  0  0  0
    5.8174   54.3104  123.0793 O   0  0  0  0  0  0  0  0  0  0  0  0
    7.2666   54.4030  120.9703 H   0  0  0  0  0  0  0  0  0  0  0  0
    5.4162   51.0136  128.7208 C   0  0  0  0  0  0  0  0  0  0  0  0
    5.3498   50.0086  129.8233 C   0  0  0  0  0  0  0  0  0  0  0  0
    4.8700   50.7636  131.0843 C   0  0  0  0  0  0  0  0  0  0  0  0
    4.1738   49.0446  129.5646 C   0  0  0  0  0  0  0  0  0  0  0  0
   10.0586   49.4964  130.3596 C   0  0  0  0  0  0  0  0  0  0  0  0
    8.3455   49.6766  132.0564 C   0  0  0  0  0  0  0  0  0  0  0  0
    9.8457   49.8624  131.7670 C   0  0  0  0  0  0  0  0  0  0  0  0
   10.5147   48.8720  132.7379 C   0  0  0  0  0  0  0  0  0  0  0  0
 61 62  1  0  0  0
 62 63  1  0  0  0
 62 60  1  0  0  0
 60 33  1  0  0  0
 33  1  1  0  0  0
  1  2  1  0  0  0
  2  3  2  0  0  0
  2  5  1  0  0  0
  5  6  1  0  0  0
  5  7  1  0  0  0
  7  8  1  0  0  0
  8  9  2  0  0  0
  8 11  1  0  0  0
 11 12  1  0  0  0
 12 13  1  0  0  0
 12 15  1  0  0  0
 15 29  1  0  0  0
 29 30  1  0  0  0
 30 31  1  0  0  0
 30 32  1  0  0  0
 15 16  1  0  0  0
 16 17  1  0  0  0
 17 18  2  0  0  0
 17 20  1  0  0  0
 20 21  1  0  0  0
 21 22  1  0  0  0
 22 23  2  0  0  0
 22 24  1  0  0  0
 20 26  1  0  0  0
 26 27  1  0  0  0
 26 28  1  0  0  0
 33 34  1  0  0  0
 34 35  2  0  0  0
 34 36  1  0  0  0
 36 38  1  0  0  0
 38 56  1  0  0  0
 56 57  1  0  0  0
 57 58  1  0  0  0
 57 59  1  0  0  0
 38 39  1  0  0  0
 39 40  2  0  0  0
 39 41  1  0  0  0
 41 43  1  0  0  0
 43 48  1  0  0  0
 48 49  1  0  0  0
 48 51  1  0  0  0
 51 52  1  0  0  0
 52 53  1  0  0  0
 52 54  2  0  0  0
 43 44  1  0  0  0
 44 45  1  0  0  0
 44 46  2  0  0  0
  1  4  1  0  0  0
  7 10  1  0  0  0
 13 14  1  0  0  0
 16 19  1  0  0  0
 21 25  1  0  0  0
 36 37  1  0  0  0
 41 42  1  0  0  0
 49 50  1  0  0  0
 53 55  1  0  0  0
 45 47  1  0  0  0
M  END
> <minimizedAffinity>
3.75868

> <CNNscore>
0.2849847078

> <CNNaffinity>
7.8320055008

> <CNN_VS>
2.2320017815

> <CNNaffinity_variance>
0.4553661942

$$$$
[H]O[C@]1([H])[C@@]([H])(C([H])([H])OP(=O)(O[H])O[H])O[C@@]([H])(n2c([H])nc3c(N([H])[H])nc([H])nc32)[C@]1([H])O[H]


 29 31  0  0  0  0  0  0  0  0999 V2000
   10.2935   46.8912  131.4399 C   0  0  0  0  0  0  0  0  0  0  0  0
   10.9592   45.7324  130.9752 O   0  0  0  0  0  0  0  0  0  0  0  0
   11.9980   45.6122  131.8926 C   0  0  0  0  0  0  0  0  0  0  0  0
   11.2363   45.6645  133.2092 C   0  0  0  0  0  0  0  0  0  0  0  0
   12.0597   46.0724  134.2539 O   0  0  0  0  0  0  0  0  0  0  0  0
   10.1553   46.7015  132.9190 C   0  0  0  0  0  0  0  0  0  0  0  0
   10.4730   47.8891  133.5751 O   0  0  0  0  0  0  0  0  0  0  0  0
   11.6130   45.8500  135.0933 H   0  0  0  0  0  0  0  0  0  0  0  0
   11.4560   48.0271  133.6242 H   0  0  0  0  0  0  0  0  0  0  0  0
    5.1254   48.3800  128.6696 N   0  0  0  0  0  0  0  0  0  0  0  0
    6.2706   48.7689  129.4078 C   0  0  0  0  0  0  0  0  0  0  0  0
    6.5452   50.0275  129.7864 N   0  0  0  0  0  0  0  0  0  0  0  0
    7.6374   50.3800  130.4873 C   0  0  0  0  0  0  0  0  0  0  0  0
    8.5212   49.4367  130.8420 N   0  0  0  0  0  0  0  0  0  0  0  0
    8.3232   48.1714  130.5070 C   0  0  0  0  0  0  0  0  0  0  0  0
    9.0577   47.0528  130.7439 N   0  0  0  0  0  0  0  0  0  0  0  0
    8.3751   46.0467  130.1698 C   0  0  0  0  0  0  0  0  0  0  0  0
    7.2640   46.4995  129.5973 N   0  0  0  0  0  0  0  0  0  0  0  0
    7.1975   47.8187  129.7864 C   0  0  0  0  0  0  0  0  0  0  0  0
    4.4754   47.6705  129.0125 H   0  0  0  0  0  0  0  0  0  0  0  0
    4.9601   48.8446  127.7514 H   0  0  0  0  0  0  0  0  0  0  0  0
   12.6577   44.2519  131.8184 C   0  0  0  0  0  0  0  0  0  0  0  0
   12.0999   43.3725  132.7390 O   0  0  0  0  0  0  0  0  0  0  0  0
   10.9109   42.4056  132.0750 P   0  0  0  0  0  0  0  0  0  0  0  0
   10.6134   42.9243  130.4898 O   0  0  0  0  0  0  0  0  0  0  0  0
   11.3286   40.7595  132.0875 O   0  0  0  0  0  0  0  0  0  0  0  0
    9.6342   42.6180  132.8777 O   0  0  0  0  0  0  0  0  0  0  0  0
   11.4051   43.2834  130.0481 H   0  0  0  0  0  0  0  0  0  0  0  0
   11.6715   40.4465  131.2288 H   0  0  0  0  0  0  0  0  0  0  0  0
 10 11  1  0  0  0
 11 12  2  0  0  0
 12 13  1  0  0  0
 13 14  2  0  0  0
 14 15  1  0  0  0
 15 16  1  0  0  0
 16 17  1  0  0  0
 17 18  2  0  0  0
 18 19  1  0  0  0
 16  1  1  0  0  0
  1  2  1  0  0  0
  2  3  1  0  0  0
  3 22  1  0  0  0
 22 23  1  0  0  0
 23 24  1  0  0  0
 24 25  1  0  0  0
 24 26  1  0  0  0
 24 27  2  0  0  0
  3  4  1  0  0  0
  4  5  1  0  0  0
  4  6  1  0  0  0
  6  7  1  0  0  0
 19 11  1  0  0  0
  6  1  1  0  0  0
 19 15  2  0  0  0
 10 20  1  0  0  0
 10 21  1  0  0  0
 25 28  1  0  0  0
 26 29  1  0  0  0
  5  8  1  0  0  0
  7  9  1  0  0  0
M  END
> <minimizedAffinity>
-6.48369

> <CNNscore>
0.4997818172

> <CNNaffinity>
5.9179410934

> <CNN_VS>
2.9576792717

> <CNNaffinity_variance>
2.0902547836

$$$$
[H]O[C@]1([H])[C@@]([H])(C([H])([H])OP(=O)(O[H])O[H])O[C@@]([H])(n2c([H])nc3c(N([H])[H])nc([H])nc32)[C@]1([H])O[H]


 29 31  0  0  0  0  0  0  0  0999 V2000
    8.1418   44.9252  131.5825 C   0  0  0  0  0  0  0  0  0  0  0  0
    8.2688   45.9378  132.5625 O   0  0  0  0  0  0  0  0  0  0  0  0
    8.0178   45.2333  133.7355 C   0  0  0  0  0  0  0  0  0  0  0  0
    8.9975   44.0765  133.6003 C   0  0  0  0  0  0  0  0  0  0  0  0
    8.5978   42.9836  134.3628 O   0  0  0  0  0  0  0  0  0  0  0  0
    8.9295   43.7650  132.1081 C   0  0  0  0  0  0  0  0  0  0  0  0
    8.2101   42.5866  131.9193 O   0  0  0  0  0  0  0  0  0  0  0  0
    9.3614   42.3809  134.4481 H   0  0  0  0  0  0  0  0  0  0  0  0
    7.4923   42.4844  132.5991 H   0  0  0  0  0  0  0  0  0  0  0  0
   10.3653   46.2714  126.1194 N   0  0  0  0  0  0  0  0  0  0  0  0
   10.2110   45.3445  127.1800 C   0  0  0  0  0  0  0  0  0  0  0  0
   10.7226   44.1031  127.1910 N   0  0  0  0  0  0  0  0  0  0  0  0
   10.5667   43.2352  128.2064 C   0  0  0  0  0  0  0  0  0  0  0  0
    9.8623   43.6072  129.2844 N   0  0  0  0  0  0  0  0  0  0  0  0
    9.3249   44.8152  129.3510 C   0  0  0  0  0  0  0  0  0  0  0  0
    8.5820   45.4171  130.3167 N   0  0  0  0  0  0  0  0  0  0  0  0
    8.3095   46.6467  129.8461 C   0  0  0  0  0  0  0  0  0  0  0  0
    8.8500   46.8200  128.6440 N   0  0  0  0  0  0  0  0  0  0  0  0
    9.4905   45.7005  128.3023 C   0  0  0  0  0  0  0  0  0  0  0  0
   10.7700   47.1979  126.2648 H   0  0  0  0  0  0  0  0  0  0  0  0
   10.0498   45.9784  125.1703 H   0  0  0  0  0  0  0  0  0  0  0  0
    8.4302   46.0195  134.9615 C   0  0  0  0  0  0  0  0  0  0  0  0
    9.7975   46.2698  134.9610 O   0  0  0  0  0  0  0  0  0  0  0  0
   10.2345   47.4850  133.9019 P   0  0  0  0  0  0  0  0  0  0  0  0
   11.3792   48.4781  134.6594 O   0  0  0  0  0  0  0  0  0  0  0  0
   10.8533   46.8824  132.4396 O   0  0  0  0  0  0  0  0  0  0  0  0
    8.9986   48.3315  133.6270 O   0  0  0  0  0  0  0  0  0  0  0  0
   11.9534   47.9961  135.2829 H   0  0  0  0  0  0  0  0  0  0  0  0
   11.8289   46.8865  132.4078 H   0  0  0  0  0  0  0  0  0  0  0  0
 10 11  1  0  0  0
 11 12  2  0  0  0
 12 13  1  0  0  0
 13 14  2  0  0  0
 14 15  1  0  0  0
 15 16  1  0  0  0
 16 17  1  0  0  0
 17 18  2  0  0  0
 18 19  1  0  0  0
 16  1  1  0  0  0
  1  2  1  0  0  0
  2  3  1  0  0  0
  3 22  1  0  0  0
 22 23  1  0  0  0
 23 24  1  0  0  0
 24 25  1  0  0  0
 24 26  1  0  0  0
 24 27  2  0  0  0
  3  4  1  0  0  0
  4  5  1  0  0  0
  4  6  1  0  0  0
  6  7  1  0  0  0
 19 11  1  0  0  0
  6  1  1  0  0  0
 19 15  2  0  0  0
 10 20  1  0  0  0
 10 21  1  0  0  0
 25 28  1  0  0  0
 26 29  1  0  0  0
  5  8  1  0  0  0
  7  9  1  0  0  0
M  END
> <minimizedAffinity>
2.71623

> <CNNscore>
0.4342203140

> <CNNaffinity>
5.4736337662

> <CNN_VS>
2.3767628670

> <CNNaffinity_variance>
2.7999117374

$$$$
[H]O[C@]1([H])[C@@]([H])(C([H])([H])OP(=O)(O[H])O[H])O[C@@]([H])(n2c([H])nc3c(N([H])[H])nc([H])nc32)[C@]1([H])O[H]


 29 31  0  0  0  0  0  0  0  0999 V2000
    9.1279   45.8268  130.7458 C   0  0  0  0  0  0  0  0  0  0  0  0
   10.3815   45.7564  131.3982 O   0  0  0  0  0  0  0  0  0  0  0  0
   10.6305   44.3878  131.3920 C   0  0  0  0  0  0  0  0  0  0  0  0
   10.4381   44.0596  129.9185 C   0  0  0  0  0  0  0  0  0  0  0  0
   10.1305   42.7150  129.7358 O   0  0  0  0  0  0  0  0  0  0  0  0
    9.2617   44.9533  129.5367 C   0  0  0  0  0  0  0  0  0  0  0  0
    8.1184   44.1692  129.3965 O   0  0  0  0  0  0  0  0  0  0  0  0
   10.2664   42.5008  128.7928 H   0  0  0  0  0  0  0  0  0  0  0  0
    8.1236   43.4005  130.0265 H   0  0  0  0  0  0  0  0  0  0  0  0
    7.0179   51.3106  129.3049 N   0  0  0  0  0  0  0  0  0  0  0  0
    6.8167   49.9111  129.3984 C   0  0  0  0  0  0  0  0  0  0  0  0
    5.6843   49.2768  129.0548 N   0  0  0  0  0  0  0  0  0  0  0  0
    5.5096   47.9468  129.1498 C   0  0  0  0  0  0  0  0  0  0  0  0
    6.5112   47.1855  129.6125 N   0  0  0  0  0  0  0  0  0  0  0  0
    7.6605   47.7347  129.9727 C   0  0  0  0  0  0  0  0  0  0  0  0
    8.8043   47.1879  130.4623 N   0  0  0  0  0  0  0  0  0  0  0  0
    9.6445   48.2207  130.6497 C   0  0  0  0  0  0  0  0  0  0  0  0
    9.0674   49.3655  130.2982 N   0  0  0  0  0  0  0  0  0  0  0  0
    7.8308   49.1028  129.8715 C   0  0  0  0  0  0  0  0  0  0  0  0
    7.7878   51.7121  128.7667 H   0  0  0  0  0  0  0  0  0  0  0  0
    6.3484   51.9310  129.8080 H   0  0  0  0  0  0  0  0  0  0  0  0
   12.0737   44.0784  131.7280 C   0  0  0  0  0  0  0  0  0  0  0  0
   12.3712   44.4335  133.0386 O   0  0  0  0  0  0  0  0  0  0  0  0
   11.1965   43.9523  134.1239 P   0  0  0  0  0  0  0  0  0  0  0  0
   10.1304   45.2446  134.3767 O   0  0  0  0  0  0  0  0  0  0  0  0
   10.3450   42.5810  133.5958 O   0  0  0  0  0  0  0  0  0  0  0  0
   11.8814   43.6525  135.4507 O   0  0  0  0  0  0  0  0  0  0  0  0
   10.0193   45.8105  133.5903 H   0  0  0  0  0  0  0  0  0  0  0  0
    9.4845   42.7994  133.1898 H   0  0  0  0  0  0  0  0  0  0  0  0
 10 11  1  0  0  0
 11 12  2  0  0  0
 12 13  1  0  0  0
 13 14  2  0  0  0
 14 15  1  0  0  0
 15 16  1  0  0  0
 16 17  1  0  0  0
 17 18  2  0  0  0
 18 19  1  0  0  0
 16  1  1  0  0  0
  1  2  1  0  0  0
  2  3  1  0  0  0
  3 22  1  0  0  0
 22 23  1  0  0  0
 23 24  1  0  0  0
 24 25  1  0  0  0
 24 26  1  0  0  0
 24 27  2  0  0  0
  3  4  1  0  0  0
  4  5  1  0  0  0
  4  6  1  0  0  0
  6  7  1  0  0  0
 19 11  1  0  0  0
  6  1  1  0  0  0
 19 15  2  0  0  0
 10 20  1  0  0  0
 10 21  1  0  0  0
 25 28  1  0  0  0
 26 29  1  0  0  0
  5  8  1  0  0  0
  7  9  1  0  0  0
M  END
> <minimizedAffinity>
-6.96152

> <CNNscore>
0.4314303398

> <CNNaffinity>
5.9755797386

> <CNN_VS>
2.5780463219

> <CNNaffinity_variance>
1.6573441029

$$$$
[H]O[C@]1([H])[C@@]([H])(C([H])([H])OP(=O)(O[H])O[H])O[C@@]([H])(n2c([H])nc3c(N([H])[H])nc([H])nc32)[C@]1([H])O[H]


 29 31  0  0  0  0  0  0  0  0999 V2000
   10.2558   46.1772  130.7444 C   0  0  0  0  0  0  0  0  0  0  0  0
    9.6654   46.8064  131.8657 O   0  0  0  0  0  0  0  0  0  0  0  0
    9.0536   47.9121  131.2839 C   0  0  0  0  0  0  0  0  0  0  0  0
    8.2447   47.2528  130.1761 C   0  0  0  0  0  0  0  0  0  0  0  0
    7.9586   48.1530  129.1546 O   0  0  0  0  0  0  0  0  0  0  0  0
    9.1864   46.1521  129.6963 C   0  0  0  0  0  0  0  0  0  0  0  0
    9.7280   46.5181  128.4657 O   0  0  0  0  0  0  0  0  0  0  0  0
    7.2440   47.7717  128.6091 H   0  0  0  0  0  0  0  0  0  0  0  0
    9.8530   47.5019  128.4000 H   0  0  0  0  0  0  0  0  0  0  0  0
   11.6323   40.4379  132.0735 N   0  0  0  0  0  0  0  0  0  0  0  0
   10.7030   41.3879  131.5817 C   0  0  0  0  0  0  0  0  0  0  0  0
    9.4682   41.0939  131.1440 N   0  0  0  0  0  0  0  0  0  0  0  0
    8.5979   42.0081  130.6801 C   0  0  0  0  0  0  0  0  0  0  0  0
    8.9606   43.2980  130.6418 N   0  0  0  0  0  0  0  0  0  0  0  0
   10.1617   43.6701  131.0555 C   0  0  0  0  0  0  0  0  0  0  0  0
   10.7538   44.8919  131.1156 N   0  0  0  0  0  0  0  0  0  0  0  0
   11.9801   44.6723  131.6211 C   0  0  0  0  0  0  0  0  0  0  0  0
   12.1607   43.3790  131.8704 N   0  0  0  0  0  0  0  0  0  0  0  0
   11.0495   42.7231  131.5308 C   0  0  0  0  0  0  0  0  0  0  0  0
   12.0461   40.5169  133.0040 H   0  0  0  0  0  0  0  0  0  0  0  0
   11.8873   39.6423  131.4505 H   0  0  0  0  0  0  0  0  0  0  0  0
    8.0634   48.5652  132.2242 C   0  0  0  0  0  0  0  0  0  0  0  0
    7.5169   49.7120  131.6602 O   0  0  0  0  0  0  0  0  0  0  0  0
    8.5858   50.5163  130.6603 P   0  0  0  0  0  0  0  0  0  0  0  0
    9.1076   51.9241  131.4455 O   0  0  0  0  0  0  0  0  0  0  0  0
    9.9177   49.5565  130.2252 O   0  0  0  0  0  0  0  0  0  0  0  0
    7.8269   50.9396  129.4096 O   0  0  0  0  0  0  0  0  0  0  0  0
    9.1553   51.8281  132.4148 H   0  0  0  0  0  0  0  0  0  0  0  0
   10.7129   49.7427  130.7599 H   0  0  0  0  0  0  0  0  0  0  0  0
 10 11  1  0  0  0
 11 12  2  0  0  0
 12 13  1  0  0  0
 13 14  2  0  0  0
 14 15  1  0  0  0
 15 16  1  0  0  0
 16 17  1  0  0  0
 17 18  2  0  0  0
 18 19  1  0  0  0
 16  1  1  0  0  0
  1  2  1  0  0  0
  2  3  1  0  0  0
  3 22  1  0  0  0
 22 23  1  0  0  0
 23 24  1  0  0  0
 24 25  1  0  0  0
 24 26  1  0  0  0
 24 27  2  0  0  0
  3  4  1  0  0  0
  4  5  1  0  0  0
  4  6  1  0  0  0
  6  7  1  0  0  0
 19 11  1  0  0  0
  6  1  1  0  0  0
 19 15  2  0  0  0
 10 20  1  0  0  0
 10 21  1  0  0  0
 25 28  1  0  0  0
 26 29  1  0  0  0
  5  8  1  0  0  0
  7  9  1  0  0  0
M  END
> <minimizedAffinity>
3.67503

> <CNNscore>
0.4184761047

> <CNNaffinity>
5.5221209526

> <CNN_VS>
2.3108756542

> <CNNaffinity_variance>
2.5597271919

$$$$
[H]O[C@]1([H])[C@@]([H])(C([H])([H])OP(=O)(O[H])O[H])O[C@@]([H])(n2c([H])nc3c(N([H])[H])nc([H])nc32)[C@]1([H])O[H]


 29 31  0  0  0  0  0  0  0  0999 V2000
    8.6288   47.1757  131.4561 C   0  0  0  0  0  0  0  0  0  0  0  0
    8.6089   45.9746  130.7085 O   0  0  0  0  0  0  0  0  0  0  0  0
    7.6440   46.2531  129.7459 C   0  0  0  0  0  0  0  0  0  0  0  0
    8.1556   47.5736  129.1886 C   0  0  0  0  0  0  0  0  0  0  0  0
    7.1307   48.3024  128.5936 O   0  0  0  0  0  0  0  0  0  0  0  0
    8.6790   48.2739  130.4392 C   0  0  0  0  0  0  0  0  0  0  0  0
    7.7934   49.2873  130.8002 O   0  0  0  0  0  0  0  0  0  0  0  0
    7.5373   48.9975  128.0411 H   0  0  0  0  0  0  0  0  0  0  0  0
    6.8543   49.0463  130.5816 H   0  0  0  0  0  0  0  0  0  0  0  0
   13.3947   46.3298  135.0854 N   0  0  0  0  0  0  0  0  0  0  0  0
   12.4941   45.8241  134.1155 C   0  0  0  0  0  0  0  0  0  0  0  0
   12.5302   44.5790  133.6141 N   0  0  0  0  0  0  0  0  0  0  0  0
   11.6673   44.1145  132.6933 C   0  0  0  0  0  0  0  0  0  0  0  0
   10.7033   44.9232  132.2314 N   0  0  0  0  0  0  0  0  0  0  0  0
   10.5999   46.1660  132.6754 C   0  0  0  0  0  0  0  0  0  0  0  0
    9.7263   47.1609  132.3689 N   0  0  0  0  0  0  0  0  0  0  0  0
   10.0957   48.2090  133.1256 C   0  0  0  0  0  0  0  0  0  0  0  0
   11.1490   47.8992  133.8752 N   0  0  0  0  0  0  0  0  0  0  0  0
   11.4916   46.6347  133.6221 C   0  0  0  0  0  0  0  0  0  0  0  0
   13.0719   46.7194  135.9729 H   0  0  0  0  0  0  0  0  0  0  0  0
   14.4130   46.2936  134.8665 H   0  0  0  0  0  0  0  0  0  0  0  0
    7.6784   45.2523  128.6108 C   0  0  0  0  0  0  0  0  0  0  0  0
    8.0910   44.0020  129.0562 O   0  0  0  0  0  0  0  0  0  0  0  0
    9.6990   43.6936  128.7262 P   0  0  0  0  0  0  0  0  0  0  0  0
   10.4624   45.1554  128.3379 O   0  0  0  0  0  0  0  0  0  0  0  0
   10.4961   42.9388  130.0221 O   0  0  0  0  0  0  0  0  0  0  0  0
    9.7597   42.7996  127.4947 O   0  0  0  0  0  0  0  0  0  0  0  0
   10.0873   45.9219  128.8098 H   0  0  0  0  0  0  0  0  0  0  0  0
   11.0162   43.5617  130.5648 H   0  0  0  0  0  0  0  0  0  0  0  0
 10 11  1  0  0  0
 11 12  2  0  0  0
 12 13  1  0  0  0
 13 14  2  0  0  0
 14 15  1  0  0  0
 15 16  1  0  0  0
 16 17  1  0  0  0
 17 18  2  0  0  0
 18 19  1  0  0  0
 16  1  1  0  0  0
  1  2  1  0  0  0
  2  3  1  0  0  0
  3 22  1  0  0  0
 22 23  1  0  0  0
 23 24  1  0  0  0
 24 25  1  0  0  0
 24 26  1  0  0  0
 24 27  2  0  0  0
  3  4  1  0  0  0
  4  5  1  0  0  0
  4  6  1  0  0  0
  6  7  1  0  0  0
 19 11  1  0  0  0
  6  1  1  0  0  0
 19 15  2  0  0  0
 10 20  1  0  0  0
 10 21  1  0  0  0
 25 28  1  0  0  0
 26 29  1  0  0  0
  5  8  1  0  0  0
  7  9  1  0  0  0
M  END
> <minimizedAffinity>
-1.58698

> <CNNscore>
0.3824747205

> <CNNaffinity>
5.3699183464

> <CNN_VS>
2.0538580418

> <CNNaffinity_variance>
2.0906646252

$$$$
[H]O[C@]1([H])[C@@]([H])(C([H])([H])OP(=O)(O[H])O[H])O[C@@]([H])(n2c([H])nc3c(N([H])[H])nc([H])nc32)[C@]1([H])O[H]


 29 31  0  0  0  0  0  0  0  0999 V2000
   10.7475   46.0835  131.4333 C   0  0  0  0  0  0  0  0  0  0  0  0
   10.6599   44.7812  130.8871 O   0  0  0  0  0  0  0  0  0  0  0  0
   11.3484   44.0278  131.8324 C   0  0  0  0  0  0  0  0  0  0  0  0
   10.6403   44.4437  133.1138 C   0  0  0  0  0  0  0  0  0  0  0  0
   11.4478   44.2371  134.2277 O   0  0  0  0  0  0  0  0  0  0  0  0
   10.3901   45.9306  132.8796 C   0  0  0  0  0  0  0  0  0  0  0  0
   11.2740   46.6717  133.6613 O   0  0  0  0  0  0  0  0  0  0  0  0
   10.8800   44.2724  135.0215 H   0  0  0  0  0  0  0  0  0  0  0  0
   12.1463   46.2070  133.7659 H   0  0  0  0  0  0  0  0  0  0  0  0
    7.3090   50.3971  128.9494 N   0  0  0  0  0  0  0  0  0  0  0  0
    8.1536   49.9643  130.0015 C   0  0  0  0  0  0  0  0  0  0  0  0
    8.4903   50.7086  131.0672 N   0  0  0  0  0  0  0  0  0  0  0  0
    9.2937   50.2824  132.0578 C   0  0  0  0  0  0  0  0  0  0  0  0
    9.8025   49.0435  132.0019 N   0  0  0  0  0  0  0  0  0  0  0  0
    9.5187   48.2466  130.9837 C   0  0  0  0  0  0  0  0  0  0  0  0
    9.9029   46.9735  130.7037 N   0  0  0  0  0  0  0  0  0  0  0  0
    9.3104   46.6681  129.5361 C   0  0  0  0  0  0  0  0  0  0  0  0
    8.5864   47.6920  129.0948 N   0  0  0  0  0  0  0  0  0  0  0  0
    8.6918   48.6935  129.9701 C   0  0  0  0  0  0  0  0  0  0  0  0
    6.4632   49.8868  128.6894 H   0  0  0  0  0  0  0  0  0  0  0  0
    7.5775   51.2649  128.4384 H   0  0  0  0  0  0  0  0  0  0  0  0
   11.1036   42.5447  131.6546 C   0  0  0  0  0  0  0  0  0  0  0  0
    9.7745   42.2220  131.9028 O   0  0  0  0  0  0  0  0  0  0  0  0
    8.7608   42.6301  130.6397 P   0  0  0  0  0  0  0  0  0  0  0  0
    7.9578   44.0693  131.0328 O   0  0  0  0  0  0  0  0  0  0  0  0
    9.5913   42.8020  129.1683 O   0  0  0  0  0  0  0  0  0  0  0  0
    7.7100   41.5351  130.5119 O   0  0  0  0  0  0  0  0  0  0  0  0
    8.4925   44.6689  131.5854 H   0  0  0  0  0  0  0  0  0  0  0  0
    9.7844   43.7327  128.9458 H   0  0  0  0  0  0  0  0  0  0  0  0
 10 11  1  0  0  0
 11 12  2  0  0  0
 12 13  1  0  0  0
 13 14  2  0  0  0
 14 15  1  0  0  0
 15 16  1  0  0  0
 16 17  1  0  0  0
 17 18  2  0  0  0
 18 19  1  0  0  0
 16  1  1  0  0  0
  1  2  1  0  0  0
  2  3  1  0  0  0
  3 22  1  0  0  0
 22 23  1  0  0  0
 23 24  1  0  0  0
 24 25  1  0  0  0
 24 26  1  0  0  0
 24 27  2  0  0  0
  3  4  1  0  0  0
  4  5  1  0  0  0
  4  6  1  0  0  0
  6  7  1  0  0  0
 19 11  1  0  0  0
  6  1  1  0  0  0
 19 15  2  0  0  0
 10 20  1  0  0  0
 10 21  1  0  0  0
 25 28  1  0  0  0
 26 29  1  0  0  0
  5  8  1  0  0  0
  7  9  1  0  0  0
M  END
> <minimizedAffinity>
-6.36619

> <CNNscore>
0.3824042082

> <CNNaffinity>
5.6806492805

> <CNN_VS>
2.1723041534

> <CNNaffinity_variance>
1.5591343641

$$$$
[H]O[C@]1([H])[C@@]([H])(C([H])([H])OP(=O)(O[H])O[H])O[C@@]([H])(n2c([H])nc3c(N([H])[H])nc([H])nc32)[C@]1([H])O[H]


 29 31  0  0  0  0  0  0  0  0999 V2000
    8.1947   45.0159  130.3416 C   0  0  0  0  0  0  0  0  0  0  0  0
    8.6201   44.6790  131.6483 O   0  0  0  0  0  0  0  0  0  0  0  0
    8.7660   43.2988  131.5544 C   0  0  0  0  0  0  0  0  0  0  0  0
    9.6612   43.1792  130.3295 C   0  0  0  0  0  0  0  0  0  0  0  0
    9.5380   41.9283  129.7332 O   0  0  0  0  0  0  0  0  0  0  0  0
    9.1203   44.2806  129.4223 C   0  0  0  0  0  0  0  0  0  0  0  0
    8.3896   43.7020  128.3864 O   0  0  0  0  0  0  0  0  0  0  0  0
   10.2942   41.8082  129.1271 H   0  0  0  0  0  0  0  0  0  0  0  0
    7.9292   42.8728  128.6835 H   0  0  0  0  0  0  0  0  0  0  0  0
    7.4160   50.9522  129.4730 N   0  0  0  0  0  0  0  0  0  0  0  0
    6.8794   49.6410  129.4944 C   0  0  0  0  0  0  0  0  0  0  0  0
    5.6011   49.3335  129.2222 N   0  0  0  0  0  0  0  0  0  0  0  0
    5.1075   48.0828  129.2471 C   0  0  0  0  0  0  0  0  0  0  0  0
    5.9201   47.0635  129.5595 N   0  0  0  0  0  0  0  0  0  0  0  0
    7.1948   47.2833  129.8409 C   0  0  0  0  0  0  0  0  0  0  0  0
    8.2003   46.4343  130.1801 N   0  0  0  0  0  0  0  0  0  0  0  0
    9.2839   47.2114  130.3517 C   0  0  0  0  0  0  0  0  0  0  0  0
    8.9856   48.4883  130.1333 N   0  0  0  0  0  0  0  0  0  0  0  0
    7.6931   48.5724  129.8128 C   0  0  0  0  0  0  0  0  0  0  0  0
    8.2172   51.1999  128.8897 H   0  0  0  0  0  0  0  0  0  0  0  0
    6.9644   51.6705  130.0783 H   0  0  0  0  0  0  0  0  0  0  0  0
    9.5428   42.7356  132.7251 C   0  0  0  0  0  0  0  0  0  0  0  0
   10.9086   42.7335  132.4669 O   0  0  0  0  0  0  0  0  0  0  0  0
   11.6984   44.0423  133.1398 P   0  0  0  0  0  0  0  0  0  0  0  0
   10.5957   44.9117  134.0878 O   0  0  0  0  0  0  0  0  0  0  0  0
   13.0420   43.5828  134.0715 O   0  0  0  0  0  0  0  0  0  0  0  0
   12.1476   44.9513  132.0035 O   0  0  0  0  0  0  0  0  0  0  0  0
    9.9171   44.3474  134.5026 H   0  0  0  0  0  0  0  0  0  0  0  0
   12.8525   43.5603  135.0289 H   0  0  0  0  0  0  0  0  0  0  0  0
 10 11  1  0  0  0
 11 12  2  0  0  0
 12 13  1  0  0  0
 13 14  2  0  0  0
 14 15  1  0  0  0
 15 16  1  0  0  0
 16 17  1  0  0  0
 17 18  2  0  0  0
 18 19  1  0  0  0
 16  1  1  0  0  0
  1  2  1  0  0  0
  2  3  1  0  0  0
  3 22  1  0  0  0
 22 23  1  0  0  0
 23 24  1  0  0  0
 24 25  1  0  0  0
 24 26  1  0  0  0
 24 27  2  0  0  0
  3  4  1  0  0  0
  4  5  1  0  0  0
  4  6  1  0  0  0
  6  7  1  0  0  0
 19 11  1  0  0  0
  6  1  1  0  0  0
 19 15  2  0  0  0
 10 20  1  0  0  0
 10 21  1  0  0  0
 25 28  1  0  0  0
 26 29  1  0  0  0
  5  8  1  0  0  0
  7  9  1  0  0  0
M  END
> <minimizedAffinity>
-7.17161

> <CNNscore>
0.3722864687

> <CNNaffinity>
5.9687891006

> <CNN_VS>
2.2220993042

> <CNNaffinity_variance>
1.1131656170

$$$$
[H]O[C@]1([H])[C@@]([H])(C([H])([H])OP(=O)(O[H])O[H])O[C@@]([H])(n2c([H])nc3c(N([H])[H])nc([H])nc32)[C@]1([H])O[H]


 29 31  0  0  0  0  0  0  0  0999 V2000
   10.5545   47.3675  132.3835 C   0  0  0  0  0  0  0  0  0  0  0  0
   10.8467   46.2735  131.5352 O   0  0  0  0  0  0  0  0  0  0  0  0
   11.3749   45.3500  132.4315 C   0  0  0  0  0  0  0  0  0  0  0  0
   10.2857   45.3135  133.4938 C   0  0  0  0  0  0  0  0  0  0  0  0
   10.7855   44.8744  134.7157 O   0  0  0  0  0  0  0  0  0  0  0  0
    9.8521   46.7747  133.5658 C   0  0  0  0  0  0  0  0  0  0  0  0
   10.3484   47.3416  134.7381 O   0  0  0  0  0  0  0  0  0  0  0  0
   10.0274   44.6276  135.2796 H   0  0  0  0  0  0  0  0  0  0  0  0
   11.2273   46.9511  134.9886 H   0  0  0  0  0  0  0  0  0  0  0  0
    7.0836   50.8823  128.8907 N   0  0  0  0  0  0  0  0  0  0  0  0
    7.5878   49.5975  129.2109 C   0  0  0  0  0  0  0  0  0  0  0  0
    7.2791   48.4690  128.5520 N   0  0  0  0  0  0  0  0  0  0  0  0
    7.7668   47.2565  128.8691 C   0  0  0  0  0  0  0  0  0  0  0  0
    8.6142   47.1402  129.9011 N   0  0  0  0  0  0  0  0  0  0  0  0
    8.9685   48.2058  130.6021 C   0  0  0  0  0  0  0  0  0  0  0  0
    9.7962   48.3449  131.6709 N   0  0  0  0  0  0  0  0  0  0  0  0
    9.7809   49.6559  131.9688 C   0  0  0  0  0  0  0  0  0  0  0  0
    8.9859   50.3180  131.1341 N   0  0  0  0  0  0  0  0  0  0  0  0
    8.4620   49.4481  130.2686 C   0  0  0  0  0  0  0  0  0  0  0  0
    7.7004   51.6696  128.6825 H   0  0  0  0  0  0  0  0  0  0  0  0
    6.0489   51.0060  128.8725 H   0  0  0  0  0  0  0  0  0  0  0  0
   11.4505   43.9633  131.8293 C   0  0  0  0  0  0  0  0  0  0  0  0
   10.6991   43.8810  130.6628 O   0  0  0  0  0  0  0  0  0  0  0  0
    9.1481   43.3211  130.9281 P   0  0  0  0  0  0  0  0  0  0  0  0
    8.1123   44.6518  131.0917 O   0  0  0  0  0  0  0  0  0  0  0  0
    8.6034   42.3001  129.6850 O   0  0  0  0  0  0  0  0  0  0  0  0
    9.1437   42.5672  132.2513 O   0  0  0  0  0  0  0  0  0  0  0  0
    8.3853   45.4193  130.5556 H   0  0  0  0  0  0  0  0  0  0  0  0
    8.0287   42.7563  129.0410 H   0  0  0  0  0  0  0  0  0  0  0  0
 10 11  1  0  0  0
 11 12  2  0  0  0
 12 13  1  0  0  0
 13 14  2  0  0  0
 14 15  1  0  0  0
 15 16  1  0  0  0
 16 17  1  0  0  0
 17 18  2  0  0  0
 18 19  1  0  0  0
 16  1  1  0  0  0
  1  2  1  0  0  0
  2  3  1  0  0  0
  3 22  1  0  0  0
 22 23  1  0  0  0
 23 24  1  0  0  0
 24 25  1  0  0  0
 24 26  1  0  0  0
 24 27  2  0  0  0
  3  4  1  0  0  0
  4  5  1  0  0  0
  4  6  1  0  0  0
  6  7  1  0  0  0
 19 11  1  0  0  0
  6  1  1  0  0  0
 19 15  2  0  0  0
 10 20  1  0  0  0
 10 21  1  0  0  0
 25 28  1  0  0  0
 26 29  1  0  0  0
  5  8  1  0  0  0
  7  9  1  0  0  0
M  END
> <minimizedAffinity>
-7.66590

> <CNNscore>
0.3557543159

> <CNNaffinity>
5.8142595291

> <CNN_VS>
2.0684478283

> <CNNaffinity_variance>
1.6175321341

$$$$
[H]O[C@]1([H])[C@@]([H])(C([H])([H])OP(=O)(O[H])O[H])O[C@@]([H])(n2c([H])nc3c(N([H])[H])nc([H])nc32)[C@]1([H])O[H]


 29 31  0  0  0  0  0  0  0  0999 V2000
    8.6466   45.2496  131.1779 C   0  0  0  0  0  0  0  0  0  0  0  0
    9.8610   44.9878  131.8552 O   0  0  0  0  0  0  0  0  0  0  0  0
    9.9319   43.6001  131.7887 C   0  0  0  0  0  0  0  0  0  0  0  0
    9.7422   43.3660  130.2970 C   0  0  0  0  0  0  0  0  0  0  0  0
    9.2697   42.0824  130.0426 O   0  0  0  0  0  0  0  0  0  0  0  0
    8.7023   44.4212  129.9315 C   0  0  0  0  0  0  0  0  0  0  0  0
    7.4722   43.7994  129.7271 O   0  0  0  0  0  0  0  0  0  0  0  0
    9.4045   41.8948  129.0937 H   0  0  0  0  0  0  0  0  0  0  0  0
    7.3600   43.0090  130.3191 H   0  0  0  0  0  0  0  0  0  0  0  0
    7.3727   51.0043  129.8140 N   0  0  0  0  0  0  0  0  0  0  0  0
    7.0366   49.6297  129.7422 C   0  0  0  0  0  0  0  0  0  0  0  0
    5.9536   49.1389  129.1186 N   0  0  0  0  0  0  0  0  0  0  0  0
    5.6489   47.8304  129.0597 C   0  0  0  0  0  0  0  0  0  0  0  0
    6.4592   46.9415  129.6513 N   0  0  0  0  0  0  0  0  0  0  0  0
    7.5479   47.3450  130.2872 C   0  0  0  0  0  0  0  0  0  0  0  0
    8.5093   46.6526  130.9529 N   0  0  0  0  0  0  0  0  0  0  0  0
    9.3756   47.5791  131.3987 C   0  0  0  0  0  0  0  0  0  0  0  0
    8.9875   48.7979  131.0364 N   0  0  0  0  0  0  0  0  0  0  0  0
    7.8528   48.6921  130.3424 C   0  0  0  0  0  0  0  0  0  0  0  0
    8.2713   51.3600  129.4833 H   0  0  0  0  0  0  0  0  0  0  0  0
    6.6670   51.6550  130.2201 H   0  0  0  0  0  0  0  0  0  0  0  0
   11.3128   43.0911  132.1430 C   0  0  0  0  0  0  0  0  0  0  0  0
   12.1175   42.9954  131.0137 O   0  0  0  0  0  0  0  0  0  0  0  0
   12.7728   44.4624  130.5576 P   0  0  0  0  0  0  0  0  0  0  0  0
   11.8416   45.1028  129.2953 O   0  0  0  0  0  0  0  0  0  0  0  0
   12.8574   45.5660  131.8457 O   0  0  0  0  0  0  0  0  0  0  0  0
   14.1707   44.2001  130.0130 O   0  0  0  0  0  0  0  0  0  0  0  0
   10.8980   44.8644  129.3550 H   0  0  0  0  0  0  0  0  0  0  0  0
   12.1240   46.2103  131.8446 H   0  0  0  0  0  0  0  0  0  0  0  0
 10 11  1  0  0  0
 11 12  2  0  0  0
 12 13  1  0  0  0
 13 14  2  0  0  0
 14 15  1  0  0  0
 15 16  1  0  0  0
 16 17  1  0  0  0
 17 18  2  0  0  0
 18 19  1  0  0  0
 16  1  1  0  0  0
  1  2  1  0  0  0
  2  3  1  0  0  0
  3 22  1  0  0  0
 22 23  1  0  0  0
 23 24  1  0  0  0
 24 25  1  0  0  0
 24 26  1  0  0  0
 24 27  2  0  0  0
  3  4  1  0  0  0
  4  5  1  0  0  0
  4  6  1  0  0  0
  6  7  1  0  0  0
 19 11  1  0  0  0
  6  1  1  0  0  0
 19 15  2  0  0  0
 10 20  1  0  0  0
 10 21  1  0  0  0
 25 28  1  0  0  0
 26 29  1  0  0  0
  5  8  1  0  0  0
  7  9  1  0  0  0
M  END
> <minimizedAffinity>
-5.57115

> <CNNscore>
0.3417764902

> <CNNaffinity>
5.6524224281

> <CNN_VS>
1.9318650961

> <CNNaffinity_variance>
0.6983993053

$$$$
[H]c1c([H])c([H])c(C([H])([H])[C@@]([H])(C(=O)N([H])[C@]([H])(C(=O)N([H])[C@]([H])(C(=O)N([H])[C@]([H])(C(=O)N2C([H])([H])C([H])([H])OC([H])([H])C2([H])[H])C([H])([H])C([H])(C([H])([H])[H])C([H])([H])[H])C([H])([H])C([H])(C([H])([H])[H])C([H])([H])[H])C([H])([H])c2c([H])c([H])c([H])c([H])c2[H])N([H])C(=O)[C@@]([H])(N([H])[H])C([H])([H])C([H])([H])C([H])([H])N=C(N([H])[H])N([H])[H])c([H])c1[H]


 65 67  0  0  0  0  0  0  0  0999 V2000
    7.1295   50.2992  128.4353 C   0  0  0  0  0  0  0  0  0  0  0  0
    7.5879   51.2771  127.4212 N   0  0  0  0  0  0  0  0  0  0  0  0
    6.8620   52.4515  127.2132 C   0  0  0  0  0  0  0  0  0  0  0  0
    5.7945   52.5521  128.0181 O   0  0  0  0  0  0  0  0  0  0  0  0
    8.4305   51.0623  126.8836 H   0  0  0  0  0  0  0  0  0  0  0  0
    6.9561   53.5987  126.3528 C   0  0  0  0  0  0  0  0  0  0  0  0
    5.7802   54.4805  126.5594 N   0  0  0  0  0  0  0  0  0  0  0  0
    5.0936   55.0905  125.4970 C   0  0  0  0  0  0  0  0  0  0  0  0
    5.4765   54.9026  124.2928 O   0  0  0  0  0  0  0  0  0  0  0  0
    5.4270   54.6584  127.5213 H   0  0  0  0  0  0  0  0  0  0  0  0
    3.9049   55.9683  125.7206 C   0  0  0  0  0  0  0  0  0  0  0  0
    3.1323   55.9191  124.4916 N   0  0  0  0  0  0  0  0  0  0  0  0
    3.6315   56.4343  123.7365 H   0  0  0  0  0  0  0  0  0  0  0  0
    2.8294   54.9727  124.2346 H   0  0  0  0  0  0  0  0  0  0  0  0
    3.1341   55.5501  126.9137 C   0  0  0  0  0  0  0  0  0  0  0  0
    1.6545   55.6278  126.8417 C   0  0  0  0  0  0  0  0  0  0  0  0
    0.8999   54.3428  126.8729 C   0  0  0  0  0  0  0  0  0  0  0  0
    1.7089   53.3665  126.1230 N   0  0  0  0  0  0  0  0  0  0  0  0
    1.5330   52.1267  126.4226 C   0  0  0  0  0  0  0  0  0  0  0  0
    0.6047   51.7692  127.4224 N   0  0  0  0  0  0  0  0  0  0  0  0
    2.2798   51.1426  125.7501 N   0  0  0  0  0  0  0  0  0  0  0  0
    0.8799   51.4072  128.3681 H   0  0  0  0  0  0  0  0  0  0  0  0
   -0.4203   51.8758  127.1978 H   0  0  0  0  0  0  0  0  0  0  0  0
    2.7457   51.3069  124.8184 H   0  0  0  0  0  0  0  0  0  0  0  0
    2.3771   50.2043  126.1929 H   0  0  0  0  0  0  0  0  0  0  0  0
    8.1606   54.4036  126.1834 C   0  0  0  0  0  0  0  0  0  0  0  0
    8.6783   54.7158  124.8747 C   0  0  0  0  0  0  0  0  0  0  0  0
    9.7706   55.5989  124.7874 C   0  0  0  0  0  0  0  0  0  0  0  0
   10.2881   55.9701  123.5716 C   0  0  0  0  0  0  0  0  0  0  0  0
    9.7333   55.4729  122.4004 C   0  0  0  0  0  0  0  0  0  0  0  0
    8.6629   54.6050  122.4301 C   0  0  0  0  0  0  0  0  0  0  0  0
    8.1793   54.2636  123.6949 C   0  0  0  0  0  0  0  0  0  0  0  0
    8.5486   48.5352  129.4752 N   0  0  0  0  0  0  0  0  0  0  0  0
    8.3042   49.8834  129.2818 C   0  0  0  0  0  0  0  0  0  0  0  0
    9.0044   50.7708  129.7819 O   0  0  0  0  0  0  0  0  0  0  0  0
    7.9175   47.8267  129.0098 H   0  0  0  0  0  0  0  0  0  0  0  0
    9.5958   47.9223  130.2634 C   0  0  0  0  0  0  0  0  0  0  0  0
    9.2348   46.5410  130.7176 C   0  0  0  0  0  0  0  0  0  0  0  0
    8.2400   46.3941  131.4953 O   0  0  0  0  0  0  0  0  0  0  0  0
    9.9765   45.4669  130.2943 N   0  0  0  0  0  0  0  0  0  0  0  0
   10.7948   45.7258  129.5994 H   0  0  0  0  0  0  0  0  0  0  0  0
    9.9597   44.0658  130.5215 C   0  0  0  0  0  0  0  0  0  0  0  0
   10.1849   43.7664  131.9304 C   0  0  0  0  0  0  0  0  0  0  0  0
    9.2766   43.0106  132.4715 O   0  0  0  0  0  0  0  0  0  0  0  0
   11.2109   44.1523  132.7845 N   0  0  0  0  0  0  0  0  0  0  0  0
   11.1451   43.7089  134.1959 C   0  0  0  0  0  0  0  0  0  0  0  0
   11.2047   44.9685  135.0296 C   0  0  0  0  0  0  0  0  0  0  0  0
   12.3986   45.6322  134.7215 O   0  0  0  0  0  0  0  0  0  0  0  0
   12.3963   46.1271  133.4137 C   0  0  0  0  0  0  0  0  0  0  0  0
   12.3959   44.9155  132.5042 C   0  0  0  0  0  0  0  0  0  0  0  0
   10.7617   43.1896  129.6223 C   0  0  0  0  0  0  0  0  0  0  0  0
   10.0876   42.6265  128.4270 C   0  0  0  0  0  0  0  0  0  0  0  0
   10.8656   42.9300  127.1421 C   0  0  0  0  0  0  0  0  0  0  0  0
    8.7600   43.3887  128.2354 C   0  0  0  0  0  0  0  0  0  0  0  0
   10.1067   48.8181  131.3169 C   0  0  0  0  0  0  0  0  0  0  0  0
    9.8076   50.0219  133.5355 C   0  0  0  0  0  0  0  0  0  0  0  0
    9.3912   48.9678  132.5813 C   0  0  0  0  0  0  0  0  0  0  0  0
    7.9201   49.2467  132.2350 C   0  0  0  0  0  0  0  0  0  0  0  0
    6.4656   49.1352  127.7924 C   0  0  0  0  0  0  0  0  0  0  0  0
    5.4799   48.4542  128.6571 C   0  0  0  0  0  0  0  0  0  0  0  0
    4.4519   49.1824  129.2611 C   0  0  0  0  0  0  0  0  0  0  0  0
    3.5183   48.6119  130.0968 C   0  0  0  0  0  0  0  0  0  0  0  0
    3.5962   47.2527  130.3544 C   0  0  0  0  0  0  0  0  0  0  0  0
    4.6064   46.5087  129.7666 C   0  0  0  0  0  0  0  0  0  0  0  0
    5.5297   47.1146  128.9308 C   0  0  0  0  0  0  0  0  0  0  0  0
 56 57  1  0  0  0
 57 58  1  0  0  0
 57 55  1  0  0  0
 55 37  1  0  0  0
 37 33  1  0  0  0
 33 34  1  0  0  0
 34 35  2  0  0  0
 34  1  1  0  0  0
  1 59  1  0  0  0
 59 60  1  0  0  0
 60 61  2  0  0  0
 61 62  1  0  0  0
 62 63  2  0  0  0
 63 64  1  0  0  0
 64 65  2  0  0  0
  1  2  1  0  0  0
  2  3  1  0  0  0
  3  4  2  0  0  0
  3  6  1  0  0  0
  6 26  1  0  0  0
 26 27  1  0  0  0
 27 28  2  0  0  0
 28 29  1  0  0  0
 29 30  2  0  0  0
 30 31  1  0  0  0
 31 32  2  0  0  0
  6  7  1  0  0  0
  7  8  1  0  0  0
  8  9  2  0  0  0
  8 11  1  0  0  0
 11 12  1  0  0  0
 11 15  1  0  0  0
 15 16  1  0  0  0
 16 17  1  0  0  0
 17 18  1  0  0  0
 18 19  2  0  0  0
 19 20  1  0  0  0
 19 21  1  0  0  0
 37 38  1  0  0  0
 38 39  2  0  0  0
 38 40  1  0  0  0
 40 42  1  0  0  0
 42 51  1  0  0  0
 51 52  1  0  0  0
 52 53  1  0  0  0
 52 54  1  0  0  0
 42 43  1  0  0  0
 43 44  2  0  0  0
 43 45  1  0  0  0
 45 46  1  0  0  0
 46 47  1  0  0  0
 47 48  1  0  0  0
 48 49  1  0  0  0
 49 50  1  0  0  0
 65 60  1  0  0  0
 32 27  1  0  0  0
 50 45  1  0  0  0
 33 36  1  0  0  0
  2  5  1  0  0  0
  7 10  1  0  0  0
 12 13  1  0  0  0
 12 14  1  0  0  0
 20 22  1  0  0  0
 20 23  1  0  0  0
 21 24  1  0  0  0
 21 25  1  0  0  0
 40 41  1  0  0  0
M  END
> <minimizedAffinity>
11.00675

> <CNNscore>
0.4967223704

> <CNNaffinity>
7.7638306618

> <CNN_VS>
3.8564684391

> <CNNaffinity_variance>
0.4032736719

$$$$
[H]c1c([H])c([H])c(C([H])([H])[C@@]([H])(C(=O)N([H])[C@]([H])(C(=O)N([H])[C@]([H])(C(=O)N([H])[C@]([H])(C(=O)N2C([H])([H])C([H])([H])OC([H])([H])C2([H])[H])C([H])([H])C([H])(C([H])([H])[H])C([H])([H])[H])C([H])([H])C([H])(C([H])([H])[H])C([H])([H])[H])C([H])([H])c2c([H])c([H])c([H])c([H])c2[H])N([H])C(=O)[C@@]([H])(N([H])[H])C([H])([H])C([H])([H])C([H])([H])N=C(N([H])[H])N([H])[H])c([H])c1[H]


 65 67  0  0  0  0  0  0  0  0999 V2000
    9.8882   49.4973  130.8753 C   0  0  0  0  0  0  0  0  0  0  0  0
    8.7362   49.6308  129.9533 N   0  0  0  0  0  0  0  0  0  0  0  0
    7.9238   50.7645  130.0190 C   0  0  0  0  0  0  0  0  0  0  0  0
    8.3284   51.6404  130.9499 O   0  0  0  0  0  0  0  0  0  0  0  0
    8.5547   48.8759  129.2883 H   0  0  0  0  0  0  0  0  0  0  0  0
    6.7515   51.2495  129.3440 C   0  0  0  0  0  0  0  0  0  0  0  0
    7.1478   52.0308  128.1459 N   0  0  0  0  0  0  0  0  0  0  0  0
    7.0205   53.4276  128.0751 C   0  0  0  0  0  0  0  0  0  0  0  0
    6.5420   54.0798  129.0638 O   0  0  0  0  0  0  0  0  0  0  0  0
    7.5485   51.5451  127.3182 H   0  0  0  0  0  0  0  0  0  0  0  0
    7.4332   54.2014  126.8649 C   0  0  0  0  0  0  0  0  0  0  0  0
    8.3004   53.3210  126.1016 N   0  0  0  0  0  0  0  0  0  0  0  0
    9.2110   53.2042  126.5936 H   0  0  0  0  0  0  0  0  0  0  0  0
    7.8500   52.4420  125.8224 H   0  0  0  0  0  0  0  0  0  0  0  0
    6.2611   54.6790  126.0964 C   0  0  0  0  0  0  0  0  0  0  0  0
    6.3947   55.9587  125.3580 C   0  0  0  0  0  0  0  0  0  0  0  0
    7.2676   55.9631  124.1498 C   0  0  0  0  0  0  0  0  0  0  0  0
    7.5872   54.5543  123.8618 N   0  0  0  0  0  0  0  0  0  0  0  0
    7.9541   54.2851  122.6573 C   0  0  0  0  0  0  0  0  0  0  0  0
    8.0312   55.3162  121.6982 N   0  0  0  0  0  0  0  0  0  0  0  0
    8.2660   52.9577  122.3125 N   0  0  0  0  0  0  0  0  0  0  0  0
    7.3561   55.4204  120.9016 H   0  0  0  0  0  0  0  0  0  0  0  0
    8.8138   56.0166  121.7959 H   0  0  0  0  0  0  0  0  0  0  0  0
    8.5172   52.2198  123.0228 H   0  0  0  0  0  0  0  0  0  0  0  0
    8.2495   52.6894  121.3056 H   0  0  0  0  0  0  0  0  0  0  0  0
    5.5787   50.4359  129.0445 C   0  0  0  0  0  0  0  0  0  0  0  0
    5.5880   49.0063  129.2306 C   0  0  0  0  0  0  0  0  0  0  0  0
    6.7544   48.3002  128.8817 C   0  0  0  0  0  0  0  0  0  0  0  0
    6.8180   46.9339  128.9960 C   0  0  0  0  0  0  0  0  0  0  0  0
    5.7195   46.2247  129.4622 C   0  0  0  0  0  0  0  0  0  0  0  0
    4.5533   46.8678  129.8174 C   0  0  0  0  0  0  0  0  0  0  0  0
    4.5475   48.2574  129.6798 C   0  0  0  0  0  0  0  0  0  0  0  0
   11.2357   47.5612  131.6772 N   0  0  0  0  0  0  0  0  0  0  0  0
   10.5566   48.1686  130.6357 C   0  0  0  0  0  0  0  0  0  0  0  0
   10.4788   47.6732  129.5059 O   0  0  0  0  0  0  0  0  0  0  0  0
   11.2548   48.0332  132.6225 H   0  0  0  0  0  0  0  0  0  0  0  0
   11.9620   46.3100  131.6593 C   0  0  0  0  0  0  0  0  0  0  0  0
   11.0626   45.1303  131.4493 C   0  0  0  0  0  0  0  0  0  0  0  0
    9.8068   45.3210  131.3986 O   0  0  0  0  0  0  0  0  0  0  0  0
   11.6014   43.8751  131.3187 N   0  0  0  0  0  0  0  0  0  0  0  0
   12.7049   43.8490  131.3522 H   0  0  0  0  0  0  0  0  0  0  0  0
   11.0914   42.5624  131.1410 C   0  0  0  0  0  0  0  0  0  0  0  0
   10.1320   42.5230  130.0440 C   0  0  0  0  0  0  0  0  0  0  0  0
    9.4266   41.4331  129.9852 O   0  0  0  0  0  0  0  0  0  0  0  0
    9.8469   43.4593  129.0575 N   0  0  0  0  0  0  0  0  0  0  0  0
    8.8251   43.1123  128.0434 C   0  0  0  0  0  0  0  0  0  0  0  0
    9.5080   43.2519  126.7019 C   0  0  0  0  0  0  0  0  0  0  0  0
    9.9647   44.5706  126.5869 O   0  0  0  0  0  0  0  0  0  0  0  0
   10.9974   44.8441  127.4892 C   0  0  0  0  0  0  0  0  0  0  0  0
   10.3783   44.7815  128.8705 C   0  0  0  0  0  0  0  0  0  0  0  0
   10.6115   41.8173  132.3385 C   0  0  0  0  0  0  0  0  0  0  0  0
    9.6697   42.5109  133.2507 C   0  0  0  0  0  0  0  0  0  0  0  0
    9.1064   41.5608  134.3130 C   0  0  0  0  0  0  0  0  0  0  0  0
    8.4280   42.9102  132.4267 C   0  0  0  0  0  0  0  0  0  0  0  0
   12.9060   46.1894  132.7854 C   0  0  0  0  0  0  0  0  0  0  0  0
   11.8042   44.6508  134.4822 C   0  0  0  0  0  0  0  0  0  0  0  0
   12.4223   45.9538  134.1432 C   0  0  0  0  0  0  0  0  0  0  0  0
   13.6245   46.1267  135.0849 C   0  0  0  0  0  0  0  0  0  0  0  0
    9.4615   49.6599  132.2896 C   0  0  0  0  0  0  0  0  0  0  0  0
    9.0857   48.3936  132.9518 C   0  0  0  0  0  0  0  0  0  0  0  0
    8.1956   47.5128  132.3324 C   0  0  0  0  0  0  0  0  0  0  0  0
    7.7866   46.3307  132.9075 C   0  0  0  0  0  0  0  0  0  0  0  0
    8.2772   45.9931  134.1587 C   0  0  0  0  0  0  0  0  0  0  0  0
    9.1618   46.8501  134.7932 C   0  0  0  0  0  0  0  0  0  0  0  0
    9.5526   48.0320  134.1860 C   0  0  0  0  0  0  0  0  0  0  0  0
 56 57  1  0  0  0
 57 58  1  0  0  0
 57 55  1  0  0  0
 55 37  1  0  0  0
 37 33  1  0  0  0
 33 34  1  0  0  0
 34 35  2  0  0  0
 34  1  1  0  0  0
  1 59  1  0  0  0
 59 60  1  0  0  0
 60 61  2  0  0  0
 61 62  1  0  0  0
 62 63  2  0  0  0
 63 64  1  0  0  0
 64 65  2  0  0  0
  1  2  1  0  0  0
  2  3  1  0  0  0
  3  4  2  0  0  0
  3  6  1  0  0  0
  6 26  1  0  0  0
 26 27  1  0  0  0
 27 28  2  0  0  0
 28 29  1  0  0  0
 29 30  2  0  0  0
 30 31  1  0  0  0
 31 32  2  0  0  0
  6  7  1  0  0  0
  7  8  1  0  0  0
  8  9  2  0  0  0
  8 11  1  0  0  0
 11 12  1  0  0  0
 11 15  1  0  0  0
 15 16  1  0  0  0
 16 17  1  0  0  0
 17 18  1  0  0  0
 18 19  2  0  0  0
 19 20  1  0  0  0
 19 21  1  0  0  0
 37 38  1  0  0  0
 38 39  2  0  0  0
 38 40  1  0  0  0
 40 42  1  0  0  0
 42 51  1  0  0  0
 51 52  1  0  0  0
 52 53  1  0  0  0
 52 54  1  0  0  0
 42 43  1  0  0  0
 43 44  2  0  0  0
 43 45  1  0  0  0
 45 46  1  0  0  0
 46 47  1  0  0  0
 47 48  1  0  0  0
 48 49  1  0  0  0
 49 50  1  0  0  0
 65 60  1  0  0  0
 32 27  1  0  0  0
 50 45  1  0  0  0
 33 36  1  0  0  0
  2  5  1  0  0  0
  7 10  1  0  0  0
 12 13  1  0  0  0
 12 14  1  0  0  0
 20 22  1  0  0  0
 20 23  1  0  0  0
 21 24  1  0  0  0
 21 25  1  0  0  0
 40 41  1  0  0  0
M  END
> <minimizedAffinity>
7.79053

> <CNNscore>
0.4939719141

> <CNNaffinity>
8.2522420883

> <CNN_VS>
4.0763759613

> <CNNaffinity_variance>
0.2271078080

$$$$
[H]c1c([H])c([H])c(C([H])([H])[C@@]([H])(C(=O)N([H])[C@]([H])(C(=O)N([H])[C@]([H])(C(=O)N([H])[C@]([H])(C(=O)N2C([H])([H])C([H])([H])OC([H])([H])C2([H])[H])C([H])([H])C([H])(C([H])([H])[H])C([H])([H])[H])C([H])([H])C([H])(C([H])([H])[H])C([H])([H])[H])C([H])([H])c2c([H])c([H])c([H])c([H])c2[H])N([H])C(=O)[C@@]([H])(N([H])[H])C([H])([H])C([H])([H])C([H])([H])N=C(N([H])[H])N([H])[H])c([H])c1[H]


 65 67  0  0  0  0  0  0  0  0999 V2000
   10.0754   49.2429  130.7716 C   0  0  0  0  0  0  0  0  0  0  0  0
    9.0742   49.5493  129.7234 N   0  0  0  0  0  0  0  0  0  0  0  0
    8.1288   50.5536  129.9406 C   0  0  0  0  0  0  0  0  0  0  0  0
    8.2722   51.1538  131.1308 O   0  0  0  0  0  0  0  0  0  0  0  0
    9.0929   49.0051  128.8582 H   0  0  0  0  0  0  0  0  0  0  0  0
    7.0259   51.1236  129.2166 C   0  0  0  0  0  0  0  0  0  0  0  0
    7.5297   51.8613  128.0312 N   0  0  0  0  0  0  0  0  0  0  0  0
    7.2479   53.2186  127.8065 C   0  0  0  0  0  0  0  0  0  0  0  0
    6.5265   53.8705  128.6350 O   0  0  0  0  0  0  0  0  0  0  0  0
    8.1265   51.3751  127.3319 H   0  0  0  0  0  0  0  0  0  0  0  0
    7.7708   53.9503  126.6128 C   0  0  0  0  0  0  0  0  0  0  0  0
    7.7698   52.9914  125.5217 N   0  0  0  0  0  0  0  0  0  0  0  0
    8.5158   52.2803  125.6722 H   0  0  0  0  0  0  0  0  0  0  0  0
    6.8424   52.6012  125.3188 H   0  0  0  0  0  0  0  0  0  0  0  0
    6.9746   55.1651  126.3252 C   0  0  0  0  0  0  0  0  0  0  0  0
    6.8237   55.5716  124.9065 C   0  0  0  0  0  0  0  0  0  0  0  0
    5.4767   55.4113  124.2888 C   0  0  0  0  0  0  0  0  0  0  0  0
    4.5015   55.4906  125.3900 N   0  0  0  0  0  0  0  0  0  0  0  0
    3.4017   54.8408  125.2287 C   0  0  0  0  0  0  0  0  0  0  0  0
    3.1855   54.1063  124.0443 N   0  0  0  0  0  0  0  0  0  0  0  0
    2.4234   54.8807  126.2385 N   0  0  0  0  0  0  0  0  0  0  0  0
    2.5041   54.3924  123.2994 H   0  0  0  0  0  0  0  0  0  0  0  0
    3.7450   53.2225  123.9088 H   0  0  0  0  0  0  0  0  0  0  0  0
    2.6343   55.1448  127.2375 H   0  0  0  0  0  0  0  0  0  0  0  0
    1.4417   54.6362  125.9886 H   0  0  0  0  0  0  0  0  0  0  0  0
    5.8054   50.4022  128.8745 C   0  0  0  0  0  0  0  0  0  0  0  0
    5.7046   48.9738  129.0412 C   0  0  0  0  0  0  0  0  0  0  0  0
    4.5049   48.4499  129.5578 C   0  0  0  0  0  0  0  0  0  0  0  0
    4.3552   47.1036  129.7791 C   0  0  0  0  0  0  0  0  0  0  0  0
    5.3980   46.2333  129.4927 C   0  0  0  0  0  0  0  0  0  0  0  0
    6.5936   46.6946  128.9851 C   0  0  0  0  0  0  0  0  0  0  0  0
    6.6874   48.0728  128.7812 C   0  0  0  0  0  0  0  0  0  0  0  0
   10.0173   47.0592  129.5738 N   0  0  0  0  0  0  0  0  0  0  0  0
   10.5347   47.8174  130.6093 C   0  0  0  0  0  0  0  0  0  0  0  0
   11.3561   47.3745  131.4198 O   0  0  0  0  0  0  0  0  0  0  0  0
    9.3259   47.5020  128.9085 H   0  0  0  0  0  0  0  0  0  0  0  0
   10.2986   45.6766  129.2533 C   0  0  0  0  0  0  0  0  0  0  0  0
   11.1910   45.0256  130.2654 C   0  0  0  0  0  0  0  0  0  0  0  0
   12.4486   45.1771  130.1581 O   0  0  0  0  0  0  0  0  0  0  0  0
   10.6441   44.2818  131.2805 N   0  0  0  0  0  0  0  0  0  0  0  0
    9.5402   44.2523  131.2779 H   0  0  0  0  0  0  0  0  0  0  0  0
   11.1458   43.5218  132.3694 C   0  0  0  0  0  0  0  0  0  0  0  0
   10.0550   43.0007  133.1842 C   0  0  0  0  0  0  0  0  0  0  0  0
   10.4009   42.6543  134.3881 O   0  0  0  0  0  0  0  0  0  0  0  0
    8.7100   42.8191  132.8859 N   0  0  0  0  0  0  0  0  0  0  0  0
    7.8400   42.2274  133.9280 C   0  0  0  0  0  0  0  0  0  0  0  0
    7.2084   41.0072  133.2974 C   0  0  0  0  0  0  0  0  0  0  0  0
    6.4969   41.4270  132.1667 O   0  0  0  0  0  0  0  0  0  0  0  0
    7.3481   41.8902  131.1586 C   0  0  0  0  0  0  0  0  0  0  0  0
    7.9840   43.1573  131.6926 C   0  0  0  0  0  0  0  0  0  0  0  0
   12.2420   44.1007  133.1958 C   0  0  0  0  0  0  0  0  0  0  0  0
   12.0047   45.4208  133.8291 C   0  0  0  0  0  0  0  0  0  0  0  0
   13.3189   46.1517  134.1248 C   0  0  0  0  0  0  0  0  0  0  0  0
   11.4076   45.1682  135.2290 C   0  0  0  0  0  0  0  0  0  0  0  0
   10.7033   45.4944  127.8473 C   0  0  0  0  0  0  0  0  0  0  0  0
   11.8451   43.3000  127.2630 C   0  0  0  0  0  0  0  0  0  0  0  0
   10.6514   44.1764  127.2202 C   0  0  0  0  0  0  0  0  0  0  0  0
    9.5130   43.3996  127.9004 C   0  0  0  0  0  0  0  0  0  0  0  0
    9.5241   49.5002  132.1277 C   0  0  0  0  0  0  0  0  0  0  0  0
    9.0038   48.2931  132.8023 C   0  0  0  0  0  0  0  0  0  0  0  0
    9.2824   48.0662  134.1524 C   0  0  0  0  0  0  0  0  0  0  0  0
    8.8488   46.9497  134.8312 C   0  0  0  0  0  0  0  0  0  0  0  0
    8.1007   46.0034  134.1494 C   0  0  0  0  0  0  0  0  0  0  0  0
    7.8107   46.2061  132.8098 C   0  0  0  0  0  0  0  0  0  0  0  0
    8.2628   47.3409  132.1571 C   0  0  0  0  0  0  0  0  0  0  0  0
 56 57  1  0  0  0
 57 58  1  0  0  0
 57 55  1  0  0  0
 55 37  1  0  0  0
 37 33  1  0  0  0
 33 34  1  0  0  0
 34 35  2  0  0  0
 34  1  1  0  0  0
  1 59  1  0  0  0
 59 60  1  0  0  0
 60 61  2  0  0  0
 61 62  1  0  0  0
 62 63  2  0  0  0
 63 64  1  0  0  0
 64 65  2  0  0  0
  1  2  1  0  0  0
  2  3  1  0  0  0
  3  4  2  0  0  0
  3  6  1  0  0  0
  6 26  1  0  0  0
 26 27  1  0  0  0
 27 28  2  0  0  0
 28 29  1  0  0  0
 29 30  2  0  0  0
 30 31  1  0  0  0
 31 32  2  0  0  0
  6  7  1  0  0  0
  7  8  1  0  0  0
  8  9  2  0  0  0
  8 11  1  0  0  0
 11 12  1  0  0  0
 11 15  1  0  0  0
 15 16  1  0  0  0
 16 17  1  0  0  0
 17 18  1  0  0  0
 18 19  2  0  0  0
 19 20  1  0  0  0
 19 21  1  0  0  0
 37 38  1  0  0  0
 38 39  2  0  0  0
 38 40  1  0  0  0
 40 42  1  0  0  0
 42 51  1  0  0  0
 51 52  1  0  0  0
 52 53  1  0  0  0
 52 54  1  0  0  0
 42 43  1  0  0  0
 43 44  2  0  0  0
 43 45  1  0  0  0
 45 46  1  0  0  0
 46 47  1  0  0  0
 47 48  1  0  0  0
 48 49  1  0  0  0
 49 50  1  0  0  0
 65 60  1  0  0  0
 32 27  1  0  0  0
 50 45  1  0  0  0
 33 36  1  0  0  0
  2  5  1  0  0  0
  7 10  1  0  0  0
 12 13  1  0  0  0
 12 14  1  0  0  0
 20 22  1  0  0  0
 20 23  1  0  0  0
 21 24  1  0  0  0
 21 25  1  0  0  0
 40 41  1  0  0  0
M  END
> <minimizedAffinity>
6.37535

> <CNNscore>
0.4512499869

> <CNNaffinity>
8.0200185776

> <CNN_VS>
3.6190333366

> <CNNaffinity_variance>
0.2338300496

$$$$
[H]c1c([H])c([H])c(C([H])([H])[C@@]([H])(C(=O)N([H])[C@]([H])(C(=O)N([H])[C@]([H])(C(=O)N([H])[C@]([H])(C(=O)N2C([H])([H])C([H])([H])OC([H])([H])C2([H])[H])C([H])([H])C([H])(C([H])([H])[H])C([H])([H])[H])C([H])([H])C([H])(C([H])([H])[H])C([H])([H])[H])C([H])([H])c2c([H])c([H])c([H])c([H])c2[H])N([H])C(=O)[C@@]([H])(N([H])[H])C([H])([H])C([H])([H])C([H])([H])N=C(N([H])[H])N([H])[H])c([H])c1[H]


 65 67  0  0  0  0  0  0  0  0999 V2000
   11.4579   47.4182  131.2151 C   0  0  0  0  0  0  0  0  0  0  0  0
   10.1881   47.2841  130.4637 N   0  0  0  0  0  0  0  0  0  0  0  0
    9.1028   46.6287  131.0484 C   0  0  0  0  0  0  0  0  0  0  0  0
    9.3636   46.1984  132.2911 O   0  0  0  0  0  0  0  0  0  0  0  0
   10.1383   47.6710  129.5188 H   0  0  0  0  0  0  0  0  0  0  0  0
    7.7600   46.2874  130.6666 C   0  0  0  0  0  0  0  0  0  0  0  0
    6.9326   47.5169  130.5838 N   0  0  0  0  0  0  0  0  0  0  0  0
    7.0493   48.4401  129.5320 C   0  0  0  0  0  0  0  0  0  0  0  0
    7.8973   48.2444  128.5968 O   0  0  0  0  0  0  0  0  0  0  0  0
    6.2238   47.7165  131.3182 H   0  0  0  0  0  0  0  0  0  0  0  0
    6.2020   49.6690  129.4575 C   0  0  0  0  0  0  0  0  0  0  0  0
    6.9697   50.6409  128.6987 N   0  0  0  0  0  0  0  0  0  0  0  0
    7.7756   50.9787  129.2654 H   0  0  0  0  0  0  0  0  0  0  0  0
    7.2153   50.3231  127.7541 H   0  0  0  0  0  0  0  0  0  0  0  0
    4.8747   49.3819  128.8674 C   0  0  0  0  0  0  0  0  0  0  0  0
    3.8865   50.4873  128.8204 C   0  0  0  0  0  0  0  0  0  0  0  0
    2.9363   50.5067  127.6721 C   0  0  0  0  0  0  0  0  0  0  0  0
    2.7604   51.9215  127.3012 N   0  0  0  0  0  0  0  0  0  0  0  0
    1.5673   52.2856  126.9823 C   0  0  0  0  0  0  0  0  0  0  0  0
    0.5160   51.3456  127.0009 N   0  0  0  0  0  0  0  0  0  0  0  0
    1.3309   53.6212  126.6098 N   0  0  0  0  0  0  0  0  0  0  0  0
    0.0590   50.9677  126.1351 H   0  0  0  0  0  0  0  0  0  0  0  0
    0.1779   51.0095  127.9418 H   0  0  0  0  0  0  0  0  0  0  0  0
    1.9795   54.4143  126.8596 H   0  0  0  0  0  0  0  0  0  0  0  0
    0.4722   53.8389  126.0611 H   0  0  0  0  0  0  0  0  0  0  0  0
    7.4199   45.3817  129.5752 C   0  0  0  0  0  0  0  0  0  0  0  0
    8.3156   44.3295  129.1646 C   0  0  0  0  0  0  0  0  0  0  0  0
    9.1031   44.5397  128.0172 C   0  0  0  0  0  0  0  0  0  0  0  0
    9.9480   43.5651  127.5477 C   0  0  0  0  0  0  0  0  0  0  0  0
   10.0360   42.3467  128.2068 C   0  0  0  0  0  0  0  0  0  0  0  0
    9.2867   42.0898  129.3349 C   0  0  0  0  0  0  0  0  0  0  0  0
    8.4456   43.1180  129.7652 C   0  0  0  0  0  0  0  0  0  0  0  0
   11.7156   45.0355  130.5344 N   0  0  0  0  0  0  0  0  0  0  0  0
   12.0593   46.0507  131.4096 C   0  0  0  0  0  0  0  0  0  0  0  0
   12.8361   45.8857  132.3568 O   0  0  0  0  0  0  0  0  0  0  0  0
   11.0538   45.2461  129.7379 H   0  0  0  0  0  0  0  0  0  0  0  0
   12.1519   43.6561  130.5524 C   0  0  0  0  0  0  0  0  0  0  0  0
   11.4981   42.8643  131.6433 C   0  0  0  0  0  0  0  0  0  0  0  0
   11.8294   41.6467  131.7969 O   0  0  0  0  0  0  0  0  0  0  0  0
   10.5601   43.4576  132.4501 N   0  0  0  0  0  0  0  0  0  0  0  0
   10.3837   44.5256  132.2317 H   0  0  0  0  0  0  0  0  0  0  0  0
    9.7368   43.0420  133.5291 C   0  0  0  0  0  0  0  0  0  0  0  0
    8.6432   43.9830  133.7392 C   0  0  0  0  0  0  0  0  0  0  0  0
    7.6081   43.7830  132.9793 O   0  0  0  0  0  0  0  0  0  0  0  0
    8.5262   45.0520  134.6194 N   0  0  0  0  0  0  0  0  0  0  0  0
    7.2843   45.8573  134.5745 C   0  0  0  0  0  0  0  0  0  0  0  0
    7.7232   47.2834  134.3315 C   0  0  0  0  0  0  0  0  0  0  0  0
    8.5767   47.6549  135.3777 O   0  0  0  0  0  0  0  0  0  0  0  0
    9.7835   46.9495  135.3401 C   0  0  0  0  0  0  0  0  0  0  0  0
    9.4369   45.5045  135.6349 C   0  0  0  0  0  0  0  0  0  0  0  0
   10.3883   42.6383  134.8067 C   0  0  0  0  0  0  0  0  0  0  0  0
   11.7834   43.0845  135.0405 C   0  0  0  0  0  0  0  0  0  0  0  0
   12.0975   43.2022  136.5359 C   0  0  0  0  0  0  0  0  0  0  0  0
   11.9029   44.5354  134.5299 C   0  0  0  0  0  0  0  0  0  0  0  0
   13.6184   43.5271  130.4729 C   0  0  0  0  0  0  0  0  0  0  0  0
   15.4582   43.5114  128.7192 C   0  0  0  0  0  0  0  0  0  0  0  0
   14.3740   44.2234  129.4350 C   0  0  0  0  0  0  0  0  0  0  0  0
   13.3635   44.6702  128.3667 C   0  0  0  0  0  0  0  0  0  0  0  0
   11.2420   48.1213  132.5067 C   0  0  0  0  0  0  0  0  0  0  0  0
   10.4067   49.3350  132.3962 C   0  0  0  0  0  0  0  0  0  0  0  0
   10.2343   50.1735  133.5003 C   0  0  0  0  0  0  0  0  0  0  0  0
    9.4492   51.3040  133.4693 C   0  0  0  0  0  0  0  0  0  0  0  0
    8.7973   51.6310  132.2911 C   0  0  0  0  0  0  0  0  0  0  0  0
    8.9531   50.8154  131.1820 C   0  0  0  0  0  0  0  0  0  0  0  0
    9.7505   49.6849  131.2477 C   0  0  0  0  0  0  0  0  0  0  0  0
 56 57  1  0  0  0
 57 58  1  0  0  0
 57 55  1  0  0  0
 55 37  1  0  0  0
 37 33  1  0  0  0
 33 34  1  0  0  0
 34 35  2  0  0  0
 34  1  1  0  0  0
  1 59  1  0  0  0
 59 60  1  0  0  0
 60 61  2  0  0  0
 61 62  1  0  0  0
 62 63  2  0  0  0
 63 64  1  0  0  0
 64 65  2  0  0  0
  1  2  1  0  0  0
  2  3  1  0  0  0
  3  4  2  0  0  0
  3  6  1  0  0  0
  6 26  1  0  0  0
 26 27  1  0  0  0
 27 28  2  0  0  0
 28 29  1  0  0  0
 29 30  2  0  0  0
 30 31  1  0  0  0
 31 32  2  0  0  0
  6  7  1  0  0  0
  7  8  1  0  0  0
  8  9  2  0  0  0
  8 11  1  0  0  0
 11 12  1  0  0  0
 11 15  1  0  0  0
 15 16  1  0  0  0
 16 17  1  0  0  0
 17 18  1  0  0  0
 18 19  2  0  0  0
 19 20  1  0  0  0
 19 21  1  0  0  0
 37 38  1  0  0  0
 38 39  2  0  0  0
 38 40  1  0  0  0
 40 42  1  0  0  0
 42 51  1  0  0  0
 51 52  1  0  0  0
 52 53  1  0  0  0
 52 54  1  0  0  0
 42 43  1  0  0  0
 43 44  2  0  0  0
 43 45  1  0  0  0
 45 46  1  0  0  0
 46 47  1  0  0  0
 47 48  1  0  0  0
 48 49  1  0  0  0
 49 50  1  0  0  0
 65 60  1  0  0  0
 32 27  1  0  0  0
 50 45  1  0  0  0
 33 36  1  0  0  0
  2  5  1  0  0  0
  7 10  1  0  0  0
 12 13  1  0  0  0
 12 14  1  0  0  0
 20 22  1  0  0  0
 20 23  1  0  0  0
 21 24  1  0  0  0
 21 25  1  0  0  0
 40 41  1  0  0  0
M  END
> <minimizedAffinity>
14.67774

> <CNNscore>
0.4498105347

> <CNNaffinity>
8.1482419968

> <CNN_VS>
3.6651651859

> <CNNaffinity_variance>
0.7673301697

$$$$
[H]c1c([H])c([H])c(C([H])([H])[C@@]([H])(C(=O)N([H])[C@]([H])(C(=O)N([H])[C@]([H])(C(=O)N([H])[C@]([H])(C(=O)N2C([H])([H])C([H])([H])OC([H])([H])C2([H])[H])C([H])([H])C([H])(C([H])([H])[H])C([H])([H])[H])C([H])([H])C([H])(C([H])([H])[H])C([H])([H])[H])C([H])([H])c2c([H])c([H])c([H])c([H])c2[H])N([H])C(=O)[C@@]([H])(N([H])[H])C([H])([H])C([H])([H])C([H])([H])N=C(N([H])[H])N([H])[H])c([H])c1[H]


 65 67  0  0  0  0  0  0  0  0999 V2000
    9.6805   49.7009  131.2644 C   0  0  0  0  0  0  0  0  0  0  0  0
    8.4507   50.4978  131.0467 N   0  0  0  0  0  0  0  0  0  0  0  0
    7.9430   50.6498  129.7549 C   0  0  0  0  0  0  0  0  0  0  0  0
    8.6682   50.0020  128.8320 O   0  0  0  0  0  0  0  0  0  0  0  0
    8.0018   50.9315  131.8563 H   0  0  0  0  0  0  0  0  0  0  0  0
    6.8329   51.3263  129.1422 C   0  0  0  0  0  0  0  0  0  0  0  0
    7.2759   51.9872  127.8892 N   0  0  0  0  0  0  0  0  0  0  0  0
    7.2228   53.3785  127.7059 C   0  0  0  0  0  0  0  0  0  0  0  0
    6.7745   54.1320  128.6350 O   0  0  0  0  0  0  0  0  0  0  0  0
    7.6546   51.4164  127.1067 H   0  0  0  0  0  0  0  0  0  0  0  0
    7.6818   54.0302  126.4417 C   0  0  0  0  0  0  0  0  0  0  0  0
    7.5972   53.0107  125.4106 N   0  0  0  0  0  0  0  0  0  0  0  0
    8.3394   52.2947  125.5562 H   0  0  0  0  0  0  0  0  0  0  0  0
    6.6527   52.6280  125.2881 H   0  0  0  0  0  0  0  0  0  0  0  0
    6.8891   55.2421  126.1332 C   0  0  0  0  0  0  0  0  0  0  0  0
    6.2612   55.3334  124.7923 C   0  0  0  0  0  0  0  0  0  0  0  0
    4.9172   55.9724  124.7086 C   0  0  0  0  0  0  0  0  0  0  0  0
    4.0849   55.3279  125.7390 N   0  0  0  0  0  0  0  0  0  0  0  0
    3.2062   54.4849  125.3206 C   0  0  0  0  0  0  0  0  0  0  0  0
    3.0827   54.2241  123.9401 N   0  0  0  0  0  0  0  0  0  0  0  0
    2.3724   53.8396  126.2515 N   0  0  0  0  0  0  0  0  0  0  0  0
    2.2716   54.5475  123.3580 H   0  0  0  0  0  0  0  0  0  0  0  0
    3.8535   53.6736  123.4762 H   0  0  0  0  0  0  0  0  0  0  0  0
    2.6055   53.7576  127.2767 H   0  0  0  0  0  0  0  0  0  0  0  0
    1.4807   53.4204  125.9123 H   0  0  0  0  0  0  0  0  0  0  0  0
    5.5115   50.7375  128.9563 C   0  0  0  0  0  0  0  0  0  0  0  0
    5.3063   49.3125  129.0299 C   0  0  0  0  0  0  0  0  0  0  0  0
    6.0478   48.4904  128.1609 C   0  0  0  0  0  0  0  0  0  0  0  0
    5.8734   47.1290  128.1502 C   0  0  0  0  0  0  0  0  0  0  0  0
    4.9526   46.5407  129.0062 C   0  0  0  0  0  0  0  0  0  0  0  0
    4.2010   47.3002  129.8770 C   0  0  0  0  0  0  0  0  0  0  0  0
    4.4216   48.6787  129.8428 C   0  0  0  0  0  0  0  0  0  0  0  0
    8.0785   47.8032  131.0666 N   0  0  0  0  0  0  0  0  0  0  0  0
    9.3840   48.2526  130.9746 C   0  0  0  0  0  0  0  0  0  0  0  0
   10.3281   47.5144  130.6720 O   0  0  0  0  0  0  0  0  0  0  0  0
    7.3156   48.4893  131.3196 H   0  0  0  0  0  0  0  0  0  0  0  0
    7.5801   46.4611  130.8573 C   0  0  0  0  0  0  0  0  0  0  0  0
    7.9841   45.5240  131.9541 C   0  0  0  0  0  0  0  0  0  0  0  0
    7.1290   45.2212  132.8447 O   0  0  0  0  0  0  0  0  0  0  0  0
    9.2576   45.0140  131.9825 N   0  0  0  0  0  0  0  0  0  0  0  0
    9.8930   45.3318  131.1370 H   0  0  0  0  0  0  0  0  0  0  0  0
    9.9900   44.1529  132.8410 C   0  0  0  0  0  0  0  0  0  0  0  0
   11.3972   44.1168  132.4617 C   0  0  0  0  0  0  0  0  0  0  0  0
   12.2188   44.4555  133.4100 O   0  0  0  0  0  0  0  0  0  0  0  0
   12.0010   43.7764  131.2573 N   0  0  0  0  0  0  0  0  0  0  0  0
   13.4761   43.8709  131.1674 C   0  0  0  0  0  0  0  0  0  0  0  0
   13.7625   44.7936  130.0045 C   0  0  0  0  0  0  0  0  0  0  0  0
   13.1809   44.2356  128.8595 O   0  0  0  0  0  0  0  0  0  0  0  0
   11.7843   44.2477  128.9267 C   0  0  0  0  0  0  0  0  0  0  0  0
   11.4073   43.2931  130.0410 C   0  0  0  0  0  0  0  0  0  0  0  0
    9.4450   42.7947  133.1201 C   0  0  0  0  0  0  0  0  0  0  0  0
    8.0325   42.5295  132.7529 C   0  0  0  0  0  0  0  0  0  0  0  0
    7.4345   41.3911  133.5866 C   0  0  0  0  0  0  0  0  0  0  0  0
    8.0193   41.9711  131.3148 C   0  0  0  0  0  0  0  0  0  0  0  0
    7.8302   45.9735  129.4886 C   0  0  0  0  0  0  0  0  0  0  0  0
    8.7549   43.7741  128.6123 C   0  0  0  0  0  0  0  0  0  0  0  0
    8.9766   45.1161  129.1993 C   0  0  0  0  0  0  0  0  0  0  0  0
    9.8737   45.8824  128.2144 C   0  0  0  0  0  0  0  0  0  0  0  0
   10.2076   49.8979  132.6400 C   0  0  0  0  0  0  0  0  0  0  0  0
   10.0477   48.7200  133.5176 C   0  0  0  0  0  0  0  0  0  0  0  0
    8.7947   48.4019  134.0473 C   0  0  0  0  0  0  0  0  0  0  0  0
    8.5850   47.3340  134.8905 C   0  0  0  0  0  0  0  0  0  0  0  0
    9.6628   46.5334  135.2332 C   0  0  0  0  0  0  0  0  0  0  0  0
   10.9156   46.8280  134.7202 C   0  0  0  0  0  0  0  0  0  0  0  0
   11.0915   47.9105  133.8743 C   0  0  0  0  0  0  0  0  0  0  0  0
 56 57  1  0  0  0
 57 58  1  0  0  0
 57 55  1  0  0  0
 55 37  1  0  0  0
 37 33  1  0  0  0
 33 34  1  0  0  0
 34 35  2  0  0  0
 34  1  1  0  0  0
  1 59  1  0  0  0
 59 60  1  0  0  0
 60 61  2  0  0  0
 61 62  1  0  0  0
 62 63  2  0  0  0
 63 64  1  0  0  0
 64 65  2  0  0  0
  1  2  1  0  0  0
  2  3  1  0  0  0
  3  4  2  0  0  0
  3  6  1  0  0  0
  6 26  1  0  0  0
 26 27  1  0  0  0
 27 28  2  0  0  0
 28 29  1  0  0  0
 29 30  2  0  0  0
 30 31  1  0  0  0
 31 32  2  0  0  0
  6  7  1  0  0  0
  7  8  1  0  0  0
  8  9  2  0  0  0
  8 11  1  0  0  0
 11 12  1  0  0  0
 11 15  1  0  0  0
 15 16  1  0  0  0
 16 17  1  0  0  0
 17 18  1  0  0  0
 18 19  2  0  0  0
 19 20  1  0  0  0
 19 21  1  0  0  0
 37 38  1  0  0  0
 38 39  2  0  0  0
 38 40  1  0  0  0
 40 42  1  0  0  0
 42 51  1  0  0  0
 51 52  1  0  0  0
 52 53  1  0  0  0
 52 54  1  0  0  0
 42 43  1  0  0  0
 43 44  2  0  0  0
 43 45  1  0  0  0
 45 46  1  0  0  0
 46 47  1  0  0  0
 47 48  1  0  0  0
 48 49  1  0  0  0
 49 50  1  0  0  0
 65 60  1  0  0  0
 32 27  1  0  0  0
 50 45  1  0  0  0
 33 36  1  0  0  0
  2  5  1  0  0  0
  7 10  1  0  0  0
 12 13  1  0  0  0
 12 14  1  0  0  0
 20 22  1  0  0  0
 20 23  1  0  0  0
 21 24  1  0  0  0
 21 25  1  0  0  0
 40 41  1  0  0  0
M  END
> <minimizedAffinity>
4.16577

> <CNNscore>
0.4447748959

> <CNNaffinity>
8.2412052155

> <CNN_VS>
3.6654810905

> <CNNaffinity_variance>
0.2674454749

$$$$
[H]c1c([H])c([H])c(C([H])([H])[C@@]([H])(C(=O)N([H])[C@]([H])(C(=O)N([H])[C@]([H])(C(=O)N([H])[C@]([H])(C(=O)N2C([H])([H])C([H])([H])OC([H])([H])C2([H])[H])C([H])([H])C([H])(C([H])([H])[H])C([H])([H])[H])C([H])([H])C([H])(C([H])([H])[H])C([H])([H])[H])C([H])([H])c2c([H])c([H])c([H])c([H])c2[H])N([H])C(=O)[C@@]([H])(N([H])[H])C([H])([H])C([H])([H])C([H])([H])N=C(N([H])[H])N([H])[H])c([H])c1[H]


 65 67  0  0  0  0  0  0  0  0999 V2000
   10.0019   49.5173  130.6173 C   0  0  0  0  0  0  0  0  0  0  0  0
    9.1843   50.1416  129.5511 N   0  0  0  0  0  0  0  0  0  0  0  0
    7.9156   50.6404  129.8532 C   0  0  0  0  0  0  0  0  0  0  0  0
    7.5947   50.4955  131.1468 O   0  0  0  0  0  0  0  0  0  0  0  0
    9.5687   50.1847  128.6049 H   0  0  0  0  0  0  0  0  0  0  0  0
    6.8460   51.2775  129.1353 C   0  0  0  0  0  0  0  0  0  0  0  0
    7.3888   51.9900  127.9518 N   0  0  0  0  0  0  0  0  0  0  0  0
    7.1708   53.3587  127.7247 C   0  0  0  0  0  0  0  0  0  0  0  0
    6.4763   54.0438  128.5493 O   0  0  0  0  0  0  0  0  0  0  0  0
    7.9658   51.4762  127.2556 H   0  0  0  0  0  0  0  0  0  0  0  0
    7.7324   54.0643  126.5329 C   0  0  0  0  0  0  0  0  0  0  0  0
    7.4748   53.1987  125.3953 N   0  0  0  0  0  0  0  0  0  0  0  0
    8.0849   52.3560  125.4439 H   0  0  0  0  0  0  0  0  0  0  0  0
    6.4789   52.9972  125.2499 H   0  0  0  0  0  0  0  0  0  0  0  0
    7.1564   55.4197  126.3795 C   0  0  0  0  0  0  0  0  0  0  0  0
    7.0396   55.9687  125.0063 C   0  0  0  0  0  0  0  0  0  0  0  0
    5.7077   55.8756  124.3436 C   0  0  0  0  0  0  0  0  0  0  0  0
    4.7431   55.5139  125.3966 N   0  0  0  0  0  0  0  0  0  0  0  0
    3.7604   54.7626  125.0393 C   0  0  0  0  0  0  0  0  0  0  0  0
    3.6535   54.3333  123.7001 N   0  0  0  0  0  0  0  0  0  0  0  0
    2.7982   54.3864  125.9938 N   0  0  0  0  0  0  0  0  0  0  0  0
    2.9278   54.6905  123.0316 H   0  0  0  0  0  0  0  0  0  0  0  0
    4.3463   53.6138  123.3612 H   0  0  0  0  0  0  0  0  0  0  0  0
    2.9737   54.4142  127.0332 H   0  0  0  0  0  0  0  0  0  0  0  0
    1.8662   54.0629  125.6582 H   0  0  0  0  0  0  0  0  0  0  0  0
    5.5844   50.6304  128.7937 C   0  0  0  0  0  0  0  0  0  0  0  0
    5.3701   49.2255  129.0362 C   0  0  0  0  0  0  0  0  0  0  0  0
    6.3679   48.3223  128.6247 C   0  0  0  0  0  0  0  0  0  0  0  0
    6.2115   46.9686  128.7889 C   0  0  0  0  0  0  0  0  0  0  0  0
    5.0536   46.4692  129.3692 C   0  0  0  0  0  0  0  0  0  0  0  0
    4.0459   47.3106  129.7897 C   0  0  0  0  0  0  0  0  0  0  0  0
    4.2611   48.6767  129.5967 C   0  0  0  0  0  0  0  0  0  0  0  0
    9.5983   47.5302  129.1697 N   0  0  0  0  0  0  0  0  0  0  0  0
   10.2446   48.0725  130.2666 C   0  0  0  0  0  0  0  0  0  0  0  0
   11.0113   47.4202  130.9839 O   0  0  0  0  0  0  0  0  0  0  0  0
    8.9636   48.1460  128.5912 H   0  0  0  0  0  0  0  0  0  0  0  0
    9.6675   46.1725  128.6745 C   0  0  0  0  0  0  0  0  0  0  0  0
    9.2999   45.1638  129.7194 C   0  0  0  0  0  0  0  0  0  0  0  0
    8.2445   44.4738  129.5578 O   0  0  0  0  0  0  0  0  0  0  0  0
   10.0974   45.0030  130.8244 N   0  0  0  0  0  0  0  0  0  0  0  0
   10.9983   45.6415  130.8309 H   0  0  0  0  0  0  0  0  0  0  0  0
   10.0652   44.1997  131.9943 C   0  0  0  0  0  0  0  0  0  0  0  0
   11.3383   44.2631  132.7018 C   0  0  0  0  0  0  0  0  0  0  0  0
   12.3836   44.2605  131.9296 O   0  0  0  0  0  0  0  0  0  0  0  0
   11.6150   44.3300  134.0620 N   0  0  0  0  0  0  0  0  0  0  0  0
   13.0346   44.3498  134.4831 C   0  0  0  0  0  0  0  0  0  0  0  0
   13.2020   43.1850  135.4322 C   0  0  0  0  0  0  0  0  0  0  0  0
   12.3140   43.3686  136.4992 O   0  0  0  0  0  0  0  0  0  0  0  0
   10.9812   43.2476  136.0937 C   0  0  0  0  0  0  0  0  0  0  0  0
   10.7113   44.4222  135.1757 C   0  0  0  0  0  0  0  0  0  0  0  0
    9.5469   42.8071  131.8871 C   0  0  0  0  0  0  0  0  0  0  0  0
    8.0902   42.5971  132.0719 C   0  0  0  0  0  0  0  0  0  0  0  0
    7.7834   41.8882  133.3955 C   0  0  0  0  0  0  0  0  0  0  0  0
    7.6232   41.5873  131.0032 C   0  0  0  0  0  0  0  0  0  0  0  0
   10.9221   45.8996  127.9497 C   0  0  0  0  0  0  0  0  0  0  0  0
   12.3361   44.1034  129.0610 C   0  0  0  0  0  0  0  0  0  0  0  0
   11.4950   44.5564  127.9286 C   0  0  0  0  0  0  0  0  0  0  0  0
   10.3216   43.5687  127.8319 C   0  0  0  0  0  0  0  0  0  0  0  0
    9.3516   49.6672  131.9454 C   0  0  0  0  0  0  0  0  0  0  0  0
    8.8639   48.3967  132.5209 C   0  0  0  0  0  0  0  0  0  0  0  0
    9.3216   47.9682  133.7693 C   0  0  0  0  0  0  0  0  0  0  0  0
    8.9257   46.7834  134.3481 C   0  0  0  0  0  0  0  0  0  0  0  0
    8.0315   45.9741  133.6658 C   0  0  0  0  0  0  0  0  0  0  0  0
    7.5625   46.3777  132.4261 C   0  0  0  0  0  0  0  0  0  0  0  0
    7.9817   47.5761  131.8725 C   0  0  0  0  0  0  0  0  0  0  0  0
 56 57  1  0  0  0
 57 58  1  0  0  0
 57 55  1  0  0  0
 55 37  1  0  0  0
 37 33  1  0  0  0
 33 34  1  0  0  0
 34 35  2  0  0  0
 34  1  1  0  0  0
  1 59  1  0  0  0
 59 60  1  0  0  0
 60 61  2  0  0  0
 61 62  1  0  0  0
 62 63  2  0  0  0
 63 64  1  0  0  0
 64 65  2  0  0  0
  1  2  1  0  0  0
  2  3  1  0  0  0
  3  4  2  0  0  0
  3  6  1  0  0  0
  6 26  1  0  0  0
 26 27  1  0  0  0
 27 28  2  0  0  0
 28 29  1  0  0  0
 29 30  2  0  0  0
 30 31  1  0  0  0
 31 32  2  0  0  0
  6  7  1  0  0  0
  7  8  1  0  0  0
  8  9  2  0  0  0
  8 11  1  0  0  0
 11 12  1  0  0  0
 11 15  1  0  0  0
 15 16  1  0  0  0
 16 17  1  0  0  0
 17 18  1  0  0  0
 18 19  2  0  0  0
 19 20  1  0  0  0
 19 21  1  0  0  0
 37 38  1  0  0  0
 38 39  2  0  0  0
 38 40  1  0  0  0
 40 42  1  0  0  0
 42 51  1  0  0  0
 51 52  1  0  0  0
 52 53  1  0  0  0
 52 54  1  0  0  0
 42 43  1  0  0  0
 43 44  2  0  0  0
 43 45  1  0  0  0
 45 46  1  0  0  0
 46 47  1  0  0  0
 47 48  1  0  0  0
 48 49  1  0  0  0
 49 50  1  0  0  0
 65 60  1  0  0  0
 32 27  1  0  0  0
 50 45  1  0  0  0
 33 36  1  0  0  0
  2  5  1  0  0  0
  7 10  1  0  0  0
 12 13  1  0  0  0
 12 14  1  0  0  0
 20 22  1  0  0  0
 20 23  1  0  0  0
 21 24  1  0  0  0
 21 25  1  0  0  0
 40 41  1  0  0  0
M  END
> <minimizedAffinity>
6.26100

> <CNNscore>
0.4440202713

> <CNNaffinity>
8.3135948181

> <CNN_VS>
3.6914045811

> <CNNaffinity_variance>
0.1747514904

$$$$
[H]c1c([H])c([H])c(C([H])([H])[C@@]([H])(C(=O)N([H])[C@]([H])(C(=O)N([H])[C@]([H])(C(=O)N([H])[C@]([H])(C(=O)N2C([H])([H])C([H])([H])OC([H])([H])C2([H])[H])C([H])([H])C([H])(C([H])([H])[H])C([H])([H])[H])C([H])([H])C([H])(C([H])([H])[H])C([H])([H])[H])C([H])([H])c2c([H])c([H])c([H])c([H])c2[H])N([H])C(=O)[C@@]([H])(N([H])[H])C([H])([H])C([H])([H])C([H])([H])N=C(N([H])[H])N([H])[H])c([H])c1[H]


 65 67  0  0  0  0  0  0  0  0999 V2000
   11.0899   47.4828  131.4937 C   0  0  0  0  0  0  0  0  0  0  0  0
   10.0955   47.3031  130.4102 N   0  0  0  0  0  0  0  0  0  0  0  0
    8.8185   46.8267  130.7137 C   0  0  0  0  0  0  0  0  0  0  0  0
    8.6465   46.5990  132.0236 O   0  0  0  0  0  0  0  0  0  0  0  0
   10.3737   47.5256  129.4520 H   0  0  0  0  0  0  0  0  0  0  0  0
    7.6213   46.5109  129.9842 C   0  0  0  0  0  0  0  0  0  0  0  0
    6.8105   47.7392  129.7917 N   0  0  0  0  0  0  0  0  0  0  0  0
    7.3374   48.9163  129.2359 C   0  0  0  0  0  0  0  0  0  0  0  0
    8.5624   48.9647  128.8770 O   0  0  0  0  0  0  0  0  0  0  0  0
    5.8064   47.7465  130.0626 H   0  0  0  0  0  0  0  0  0  0  0  0
    6.5055   50.1423  129.0395 C   0  0  0  0  0  0  0  0  0  0  0  0
    6.2261   50.6554  130.3694 N   0  0  0  0  0  0  0  0  0  0  0  0
    5.5563   50.0267  130.8600 H   0  0  0  0  0  0  0  0  0  0  0  0
    7.0701   50.8835  130.9072 H   0  0  0  0  0  0  0  0  0  0  0  0
    7.1810   51.1257  128.1626 C   0  0  0  0  0  0  0  0  0  0  0  0
    6.9271   52.5651  128.4157 C   0  0  0  0  0  0  0  0  0  0  0  0
    7.6017   53.5465  127.5194 C   0  0  0  0  0  0  0  0  0  0  0  0
    6.5382   54.1825  126.7229 N   0  0  0  0  0  0  0  0  0  0  0  0
    6.8607   55.2574  126.0917 C   0  0  0  0  0  0  0  0  0  0  0  0
    8.1740   55.7625  126.1873 N   0  0  0  0  0  0  0  0  0  0  0  0
    5.8902   55.9200  125.3187 N   0  0  0  0  0  0  0  0  0  0  0  0
    8.4244   56.6338  126.7159 H   0  0  0  0  0  0  0  0  0  0  0  0
    8.9399   55.2275  125.6978 H   0  0  0  0  0  0  0  0  0  0  0  0
    5.0123   55.4523  124.9685 H   0  0  0  0  0  0  0  0  0  0  0  0
    6.0460   56.9220  125.0787 H   0  0  0  0  0  0  0  0  0  0  0  0
    7.5850   45.6939  128.7765 C   0  0  0  0  0  0  0  0  0  0  0  0
    8.7330   44.9347  128.3477 C   0  0  0  0  0  0  0  0  0  0  0  0
    9.9039   45.6382  128.0088 C   0  0  0  0  0  0  0  0  0  0  0  0
   11.0205   44.9816  127.5552 C   0  0  0  0  0  0  0  0  0  0  0  0
   11.0073   43.5998  127.4237 C   0  0  0  0  0  0  0  0  0  0  0  0
    9.8865   42.8633  127.7421 C   0  0  0  0  0  0  0  0  0  0  0  0
    8.7817   43.5855  128.1978 C   0  0  0  0  0  0  0  0  0  0  0  0
   11.7938   45.2323  130.6894 N   0  0  0  0  0  0  0  0  0  0  0  0
   11.8475   46.1945  131.6825 C   0  0  0  0  0  0  0  0  0  0  0  0
   12.4857   46.0426  132.7301 O   0  0  0  0  0  0  0  0  0  0  0  0
   11.2383   45.4297  129.8124 H   0  0  0  0  0  0  0  0  0  0  0  0
   12.4189   43.9275  130.6765 C   0  0  0  0  0  0  0  0  0  0  0  0
   12.0185   43.0906  131.8529 C   0  0  0  0  0  0  0  0  0  0  0  0
   12.1439   41.8280  131.7752 O   0  0  0  0  0  0  0  0  0  0  0  0
   11.5254   43.6923  132.9833 N   0  0  0  0  0  0  0  0  0  0  0  0
   11.4939   44.7950  132.9337 H   0  0  0  0  0  0  0  0  0  0  0  0
   11.0356   43.2502  134.2401 C   0  0  0  0  0  0  0  0  0  0  0  0
    9.7405   42.5977  134.0914 C   0  0  0  0  0  0  0  0  0  0  0  0
    9.4929   41.6843  134.9821 O   0  0  0  0  0  0  0  0  0  0  0  0
    8.7296   42.7956  133.1586 N   0  0  0  0  0  0  0  0  0  0  0  0
    7.5237   41.9408  133.2476 C   0  0  0  0  0  0  0  0  0  0  0  0
    7.3905   41.2697  131.8995 C   0  0  0  0  0  0  0  0  0  0  0  0
    7.2775   42.2729  130.9291 O   0  0  0  0  0  0  0  0  0  0  0  0
    8.4625   43.0030  130.7950 C   0  0  0  0  0  0  0  0  0  0  0  0
    8.6417   43.7589  132.0957 C   0  0  0  0  0  0  0  0  0  0  0  0
   11.0615   44.1999  135.3878 C   0  0  0  0  0  0  0  0  0  0  0  0
    9.8187   44.9511  135.6895 C   0  0  0  0  0  0  0  0  0  0  0  0
    9.5822   46.0827  134.6835 C   0  0  0  0  0  0  0  0  0  0  0  0
   10.0322   45.6926  137.0255 C   0  0  0  0  0  0  0  0  0  0  0  0
   13.8688   43.9990  130.4190 C   0  0  0  0  0  0  0  0  0  0  0  0
   14.8905   45.2386  128.4493 C   0  0  0  0  0  0  0  0  0  0  0  0
   14.3862   43.9834  129.0533 C   0  0  0  0  0  0  0  0  0  0  0  0
   15.5536   42.9842  129.0263 C   0  0  0  0  0  0  0  0  0  0  0  0
   10.4352   47.9340  132.7494 C   0  0  0  0  0  0  0  0  0  0  0  0
   10.0252   49.3535  132.7352 C   0  0  0  0  0  0  0  0  0  0  0  0
   10.2787   50.1702  133.8400 C   0  0  0  0  0  0  0  0  0  0  0  0
    9.8997   51.4924  133.8989 C   0  0  0  0  0  0  0  0  0  0  0  0
    9.2361   52.0448  132.8152 C   0  0  0  0  0  0  0  0  0  0  0  0
    8.9737   51.2553  131.7074 C   0  0  0  0  0  0  0  0  0  0  0  0
    9.3688   49.9280  131.6812 C   0  0  0  0  0  0  0  0  0  0  0  0
 56 57  1  0  0  0
 57 58  1  0  0  0
 57 55  1  0  0  0
 55 37  1  0  0  0
 37 33  1  0  0  0
 33 34  1  0  0  0
 34 35  2  0  0  0
 34  1  1  0  0  0
  1 59  1  0  0  0
 59 60  1  0  0  0
 60 61  2  0  0  0
 61 62  1  0  0  0
 62 63  2  0  0  0
 63 64  1  0  0  0
 64 65  2  0  0  0
  1  2  1  0  0  0
  2  3  1  0  0  0
  3  4  2  0  0  0
  3  6  1  0  0  0
  6 26  1  0  0  0
 26 27  1  0  0  0
 27 28  2  0  0  0
 28 29  1  0  0  0
 29 30  2  0  0  0
 30 31  1  0  0  0
 31 32  2  0  0  0
  6  7  1  0  0  0
  7  8  1  0  0  0
  8  9  2  0  0  0
  8 11  1  0  0  0
 11 12  1  0  0  0
 11 15  1  0  0  0
 15 16  1  0  0  0
 16 17  1  0  0  0
 17 18  1  0  0  0
 18 19  2  0  0  0
 19 20  1  0  0  0
 19 21  1  0  0  0
 37 38  1  0  0  0
 38 39  2  0  0  0
 38 40  1  0  0  0
 40 42  1  0  0  0
 42 51  1  0  0  0
 51 52  1  0  0  0
 52 53  1  0  0  0
 52 54  1  0  0  0
 42 43  1  0  0  0
 43 44  2  0  0  0
 43 45  1  0  0  0
 45 46  1  0  0  0
 46 47  1  0  0  0
 47 48  1  0  0  0
 48 49  1  0  0  0
 49 50  1  0  0  0
 65 60  1  0  0  0
 32 27  1  0  0  0
 50 45  1  0  0  0
 33 36  1  0  0  0
  2  5  1  0  0  0
  7 10  1  0  0  0
 12 13  1  0  0  0
 12 14  1  0  0  0
 20 22  1  0  0  0
 20 23  1  0  0  0
 21 24  1  0  0  0
 21 25  1  0  0  0
 40 41  1  0  0  0
M  END
> <minimizedAffinity>
13.05091

> <CNNscore>
0.4288327992

> <CNNaffinity>
7.9446821213

> <CNN_VS>
3.4069402218

> <CNNaffinity_variance>
0.4980874956

$$$$
[H]c1c([H])c([H])c(C([H])([H])[C@@]([H])(C(=O)N([H])[C@]([H])(C(=O)N([H])[C@]([H])(C(=O)N([H])[C@]([H])(C(=O)N2C([H])([H])C([H])([H])OC([H])([H])C2([H])[H])C([H])([H])C([H])(C([H])([H])[H])C([H])([H])[H])C([H])([H])C([H])(C([H])([H])[H])C([H])([H])[H])C([H])([H])c2c([H])c([H])c([H])c([H])c2[H])N([H])C(=O)[C@@]([H])(N([H])[H])C([H])([H])C([H])([H])C([H])([H])N=C(N([H])[H])N([H])[H])c([H])c1[H]


 65 67  0  0  0  0  0  0  0  0999 V2000
    9.5199   50.2853  131.5977 C   0  0  0  0  0  0  0  0  0  0  0  0
    8.1757   50.7673  131.2032 N   0  0  0  0  0  0  0  0  0  0  0  0
    7.8800   50.9682  129.8535 C   0  0  0  0  0  0  0  0  0  0  0  0
    8.9059   50.6635  129.0459 O   0  0  0  0  0  0  0  0  0  0  0  0
    7.4899   50.9532  131.9382 H   0  0  0  0  0  0  0  0  0  0  0  0
    6.7514   51.4215  129.0880 C   0  0  0  0  0  0  0  0  0  0  0  0
    7.2187   52.0558  127.8301 N   0  0  0  0  0  0  0  0  0  0  0  0
    7.2495   53.4480  127.6485 C   0  0  0  0  0  0  0  0  0  0  0  0
    6.8602   54.2263  128.5837 O   0  0  0  0  0  0  0  0  0  0  0  0
    7.5516   51.4639  127.0424 H   0  0  0  0  0  0  0  0  0  0  0  0
    7.7321   54.0720  126.3792 C   0  0  0  0  0  0  0  0  0  0  0  0
    7.5324   53.0762  125.3408 N   0  0  0  0  0  0  0  0  0  0  0  0
    8.2124   52.2963  125.4601 H   0  0  0  0  0  0  0  0  0  0  0  0
    6.5552   52.7790  125.2392 H   0  0  0  0  0  0  0  0  0  0  0  0
    7.0412   55.3522  126.1031 C   0  0  0  0  0  0  0  0  0  0  0  0
    6.5413   55.5838  124.7258 C   0  0  0  0  0  0  0  0  0  0  0  0
    5.0817   55.3977  124.4877 C   0  0  0  0  0  0  0  0  0  0  0  0
    4.9561   54.6993  123.1968 N   0  0  0  0  0  0  0  0  0  0  0  0
    3.9375   53.9233  123.0624 C   0  0  0  0  0  0  0  0  0  0  0  0
    3.0172   53.7802  124.1215 N   0  0  0  0  0  0  0  0  0  0  0  0
    3.7617   53.2196  121.8573 N   0  0  0  0  0  0  0  0  0  0  0  0
    2.9314   52.9110  124.7033 H   0  0  0  0  0  0  0  0  0  0  0  0
    2.3853   54.5977  124.3333 H   0  0  0  0  0  0  0  0  0  0  0  0
    4.2204   53.5022  120.9508 H   0  0  0  0  0  0  0  0  0  0  0  0
    3.1471   52.3780  121.8590 H   0  0  0  0  0  0  0  0  0  0  0  0
    5.5572   50.6245  128.8320 C   0  0  0  0  0  0  0  0  0  0  0  0
    5.5869   49.1845  128.8935 C   0  0  0  0  0  0  0  0  0  0  0  0
    4.6891   48.5396  129.7645 C   0  0  0  0  0  0  0  0  0  0  0  0
    4.6904   47.1739  129.9019 C   0  0  0  0  0  0  0  0  0  0  0  0
    5.5881   46.4043  129.1749 C   0  0  0  0  0  0  0  0  0  0  0  0
    6.4882   46.9860  128.3080 C   0  0  0  0  0  0  0  0  0  0  0  0
    6.4402   48.3781  128.2101 C   0  0  0  0  0  0  0  0  0  0  0  0
    8.6297   48.0279  131.0329 N   0  0  0  0  0  0  0  0  0  0  0  0
    9.7136   48.8873  131.0709 C   0  0  0  0  0  0  0  0  0  0  0  0
   10.8450   48.5571  130.6983 O   0  0  0  0  0  0  0  0  0  0  0  0
    7.6861   48.3767  131.3564 H   0  0  0  0  0  0  0  0  0  0  0  0
    8.5985   46.6499  130.5932 C   0  0  0  0  0  0  0  0  0  0  0  0
    9.2780   45.7268  131.5579 C   0  0  0  0  0  0  0  0  0  0  0  0
    8.5857   45.1862  132.4768 O   0  0  0  0  0  0  0  0  0  0  0  0
   10.6231   45.4831  131.4384 N   0  0  0  0  0  0  0  0  0  0  0  0
   11.1021   45.9905  130.5825 H   0  0  0  0  0  0  0  0  0  0  0  0
   11.5860   44.7198  132.1491 C   0  0  0  0  0  0  0  0  0  0  0  0
   11.5178   43.3144  131.7677 C   0  0  0  0  0  0  0  0  0  0  0  0
   12.6688   42.7728  131.5015 O   0  0  0  0  0  0  0  0  0  0  0  0
   10.4272   42.4617  131.6471 N   0  0  0  0  0  0  0  0  0  0  0  0
   10.6766   41.0720  131.2004 C   0  0  0  0  0  0  0  0  0  0  0  0
    9.8157   40.8696  129.9743 C   0  0  0  0  0  0  0  0  0  0  0  0
    8.4833   41.0933  130.3426 O   0  0  0  0  0  0  0  0  0  0  0  0
    8.2508   42.4338  130.6655 C   0  0  0  0  0  0  0  0  0  0  0  0
    9.0395   42.7060  131.9300 C   0  0  0  0  0  0  0  0  0  0  0  0
   11.6893   44.9007  133.6244 C   0  0  0  0  0  0  0  0  0  0  0  0
   12.0753   43.7223  134.4383 C   0  0  0  0  0  0  0  0  0  0  0  0
   11.2441   43.6235  135.7220 C   0  0  0  0  0  0  0  0  0  0  0  0
   13.5104   43.9584  134.9532 C   0  0  0  0  0  0  0  0  0  0  0  0
    9.0047   46.4980  129.1840 C   0  0  0  0  0  0  0  0  0  0  0  0
    9.1342   44.2564  127.9927 C   0  0  0  0  0  0  0  0  0  0  0  0
    9.7908   45.3448  128.7538 C   0  0  0  0  0  0  0  0  0  0  0  0
   10.9238   45.8799  127.8638 C   0  0  0  0  0  0  0  0  0  0  0  0
    9.7011   50.3561  133.0712 C   0  0  0  0  0  0  0  0  0  0  0  0
    9.6465   49.0426  133.7457 C   0  0  0  0  0  0  0  0  0  0  0  0
    8.4208   48.5134  134.1574 C   0  0  0  0  0  0  0  0  0  0  0  0
    8.3055   47.3082  134.8127 C   0  0  0  0  0  0  0  0  0  0  0  0
    9.4547   46.5812  135.0789 C   0  0  0  0  0  0  0  0  0  0  0  0
   10.6823   47.0847  134.6799 C   0  0  0  0  0  0  0  0  0  0  0  0
   10.7625   48.3012  134.0226 C   0  0  0  0  0  0  0  0  0  0  0  0
 56 57  1  0  0  0
 57 58  1  0  0  0
 57 55  1  0  0  0
 55 37  1  0  0  0
 37 33  1  0  0  0
 33 34  1  0  0  0
 34 35  2  0  0  0
 34  1  1  0  0  0
  1 59  1  0  0  0
 59 60  1  0  0  0
 60 61  2  0  0  0
 61 62  1  0  0  0
 62 63  2  0  0  0
 63 64  1  0  0  0
 64 65  2  0  0  0
  1  2  1  0  0  0
  2  3  1  0  0  0
  3  4  2  0  0  0
  3  6  1  0  0  0
  6 26  1  0  0  0
 26 27  1  0  0  0
 27 28  2  0  0  0
 28 29  1  0  0  0
 29 30  2  0  0  0
 30 31  1  0  0  0
 31 32  2  0  0  0
  6  7  1  0  0  0
  7  8  1  0  0  0
  8  9  2  0  0  0
  8 11  1  0  0  0
 11 12  1  0  0  0
 11 15  1  0  0  0
 15 16  1  0  0  0
 16 17  1  0  0  0
 17 18  1  0  0  0
 18 19  2  0  0  0
 19 20  1  0  0  0
 19 21  1  0  0  0
 37 38  1  0  0  0
 38 39  2  0  0  0
 38 40  1  0  0  0
 40 42  1  0  0  0
 42 51  1  0  0  0
 51 52  1  0  0  0
 52 53  1  0  0  0
 52 54  1  0  0  0
 42 43  1  0  0  0
 43 44  2  0  0  0
 43 45  1  0  0  0
 45 46  1  0  0  0
 46 47  1  0  0  0
 47 48  1  0  0  0
 48 49  1  0  0  0
 49 50  1  0  0  0
 65 60  1  0  0  0
 32 27  1  0  0  0
 50 45  1  0  0  0
 33 36  1  0  0  0
  2  5  1  0  0  0
  7 10  1  0  0  0
 12 13  1  0  0  0
 12 14  1  0  0  0
 20 22  1  0  0  0
 20 23  1  0  0  0
 21 24  1  0  0  0
 21 25  1  0  0  0
 40 41  1  0  0  0
M  END
> <minimizedAffinity>
7.00881

> <CNNscore>
0.4274993241

> <CNNaffinity>
8.1010122299

> <CNN_VS>
3.4631772041

> <CNNaffinity_variance>
0.2698386312

$$$$
[H]c1c([H])c([H])c(C([H])([H])[C@@]([H])(C(=O)N([H])[C@]([H])(C(=O)N([H])[C@]([H])(C(=O)N([H])[C@]([H])(C(=O)N2C([H])([H])C([H])([H])OC([H])([H])C2([H])[H])C([H])([H])C([H])(C([H])([H])[H])C([H])([H])[H])C([H])([H])C([H])(C([H])([H])[H])C([H])([H])[H])C([H])([H])c2c([H])c([H])c([H])c([H])c2[H])N([H])C(=O)[C@@]([H])(N([H])[H])C([H])([H])C([H])([H])C([H])([H])N=C(N([H])[H])N([H])[H])c([H])c1[H]


 65 67  0  0  0  0  0  0  0  0999 V2000
    8.9481   42.9285  131.8566 C   0  0  0  0  0  0  0  0  0  0  0  0
    9.2984   43.9977  130.8927 N   0  0  0  0  0  0  0  0  0  0  0  0
    8.7310   43.9939  129.6170 C   0  0  0  0  0  0  0  0  0  0  0  0
    7.8816   42.9737  129.4291 O   0  0  0  0  0  0  0  0  0  0  0  0
    9.9633   44.7175  131.1843 H   0  0  0  0  0  0  0  0  0  0  0  0
    8.8165   44.8049  128.4337 C   0  0  0  0  0  0  0  0  0  0  0  0
    7.6855   45.7656  128.3994 N   0  0  0  0  0  0  0  0  0  0  0  0
    7.0390   46.2177  129.5611 C   0  0  0  0  0  0  0  0  0  0  0  0
    7.4128   45.7987  130.7085 O   0  0  0  0  0  0  0  0  0  0  0  0
    7.3495   46.1400  127.4892 H   0  0  0  0  0  0  0  0  0  0  0  0
    5.9076   47.1929  129.5108 C   0  0  0  0  0  0  0  0  0  0  0  0
    5.6263   47.4095  128.1024 N   0  0  0  0  0  0  0  0  0  0  0  0
    6.3949   47.9609  127.6666 H   0  0  0  0  0  0  0  0  0  0  0  0
    5.3762   46.5519  127.5970 H   0  0  0  0  0  0  0  0  0  0  0  0
    4.7350   46.7086  130.2743 C   0  0  0  0  0  0  0  0  0  0  0  0
    3.4279   46.6598  129.5745 C   0  0  0  0  0  0  0  0  0  0  0  0
    2.2624   46.1315  130.3388 C   0  0  0  0  0  0  0  0  0  0  0  0
    1.6442   45.0963  129.4926 N   0  0  0  0  0  0  0  0  0  0  0  0
    0.5183   45.4000  128.9467 C   0  0  0  0  0  0  0  0  0  0  0  0
   -0.0552   46.6680  129.1754 N   0  0  0  0  0  0  0  0  0  0  0  0
   -0.1303   44.4538  128.1329 N   0  0  0  0  0  0  0  0  0  0  0  0
   -0.9079   46.8219  129.7673 H   0  0  0  0  0  0  0  0  0  0  0  0
    0.4061   47.5015  128.7226 H   0  0  0  0  0  0  0  0  0  0  0  0
    0.3663   43.6366  127.6884 H   0  0  0  0  0  0  0  0  0  0  0  0
   -1.1517   44.5656  127.9590 H   0  0  0  0  0  0  0  0  0  0  0  0
   10.0368   45.4528  127.9667 C   0  0  0  0  0  0  0  0  0  0  0  0
   11.3256   45.1141  128.5167 C   0  0  0  0  0  0  0  0  0  0  0  0
   11.6415   45.5862  129.8043 C   0  0  0  0  0  0  0  0  0  0  0  0
   12.8654   45.3345  130.3724 C   0  0  0  0  0  0  0  0  0  0  0  0
   13.8167   44.6030  129.6749 C   0  0  0  0  0  0  0  0  0  0  0  0
   13.5581   44.1176  128.4109 C   0  0  0  0  0  0  0  0  0  0  0  0
   12.2969   44.4052  127.8849 C   0  0  0  0  0  0  0  0  0  0  0  0
    8.3905   44.9310  133.2300 N   0  0  0  0  0  0  0  0  0  0  0  0
    8.3451   43.5554  133.0865 C   0  0  0  0  0  0  0  0  0  0  0  0
    7.8369   42.8091  133.9308 O   0  0  0  0  0  0  0  0  0  0  0  0
    8.8301   45.5130  132.4653 H   0  0  0  0  0  0  0  0  0  0  0  0
    7.8995   45.7298  134.3318 C   0  0  0  0  0  0  0  0  0  0  0  0
    8.1512   47.1933  134.1331 C   0  0  0  0  0  0  0  0  0  0  0  0
    7.9298   47.9880  135.1003 O   0  0  0  0  0  0  0  0  0  0  0  0
    8.6095   47.6496  132.9229 N   0  0  0  0  0  0  0  0  0  0  0  0
    8.7887   46.8556  132.1766 H   0  0  0  0  0  0  0  0  0  0  0  0
    8.9275   48.9165  132.3673 C   0  0  0  0  0  0  0  0  0  0  0  0
    8.6412   48.9425  130.9381 C   0  0  0  0  0  0  0  0  0  0  0  0
    9.5020   48.3014  130.2053 O   0  0  0  0  0  0  0  0  0  0  0  0
    7.5993   49.5351  130.2348 N   0  0  0  0  0  0  0  0  0  0  0  0
    7.5985   49.4135  128.7590 C   0  0  0  0  0  0  0  0  0  0  0  0
    7.5535   50.8276  128.2263 C   0  0  0  0  0  0  0  0  0  0  0  0
    6.3957   51.4381  128.7240 O   0  0  0  0  0  0  0  0  0  0  0  0
    6.4628   51.6310  130.1073 C   0  0  0  0  0  0  0  0  0  0  0  0
    6.4530   50.2486  130.7270 C   0  0  0  0  0  0  0  0  0  0  0  0
   10.2493   49.5234  132.6900 C   0  0  0  0  0  0  0  0  0  0  0  0
   11.3630   48.6068  133.0359 C   0  0  0  0  0  0  0  0  0  0  0  0
   11.0871   47.1758  132.5619 C   0  0  0  0  0  0  0  0  0  0  0  0
   11.4035   48.4780  134.5728 C   0  0  0  0  0  0  0  0  0  0  0  0
    8.3068   45.1933  135.6433 C   0  0  0  0  0  0  0  0  0  0  0  0
   10.1267   44.8980  137.3929 C   0  0  0  0  0  0  0  0  0  0  0  0
    9.4945   45.7041  136.3227 C   0  0  0  0  0  0  0  0  0  0  0  0
   10.5691   45.9227  135.2460 C   0  0  0  0  0  0  0  0  0  0  0  0
   10.1337   42.0928  132.1807 C   0  0  0  0  0  0  0  0  0  0  0  0
   11.1472   42.7838  133.0043 C   0  0  0  0  0  0  0  0  0  0  0  0
   11.0207   42.8160  134.3953 C   0  0  0  0  0  0  0  0  0  0  0  0
   11.9163   43.4640  135.2159 C   0  0  0  0  0  0  0  0  0  0  0  0
   12.9956   44.1162  134.6416 C   0  0  0  0  0  0  0  0  0  0  0  0
   13.1432   44.0981  133.2642 C   0  0  0  0  0  0  0  0  0  0  0  0
   12.2233   43.4365  132.4677 C   0  0  0  0  0  0  0  0  0  0  0  0
 56 57  1  0  0  0
 57 58  1  0  0  0
 57 55  1  0  0  0
 55 37  1  0  0  0
 37 33  1  0  0  0
 33 34  1  0  0  0
 34 35  2  0  0  0
 34  1  1  0  0  0
  1 59  1  0  0  0
 59 60  1  0  0  0
 60 61  2  0  0  0
 61 62  1  0  0  0
 62 63  2  0  0  0
 63 64  1  0  0  0
 64 65  2  0  0  0
  1  2  1  0  0  0
  2  3  1  0  0  0
  3  4  2  0  0  0
  3  6  1  0  0  0
  6 26  1  0  0  0
 26 27  1  0  0  0
 27 28  2  0  0  0
 28 29  1  0  0  0
 29 30  2  0  0  0
 30 31  1  0  0  0
 31 32  2  0  0  0
  6  7  1  0  0  0
  7  8  1  0  0  0
  8  9  2  0  0  0
  8 11  1  0  0  0
 11 12  1  0  0  0
 11 15  1  0  0  0
 15 16  1  0  0  0
 16 17  1  0  0  0
 17 18  1  0  0  0
 18 19  2  0  0  0
 19 20  1  0  0  0
 19 21  1  0  0  0
 37 38  1  0  0  0
 38 39  2  0  0  0
 38 40  1  0  0  0
 40 42  1  0  0  0
 42 51  1  0  0  0
 51 52  1  0  0  0
 52 53  1  0  0  0
 52 54  1  0  0  0
 42 43  1  0  0  0
 43 44  2  0  0  0
 43 45  1  0  0  0
 45 46  1  0  0  0
 46 47  1  0  0  0
 47 48  1  0  0  0
 48 49  1  0  0  0
 49 50  1  0  0  0
 65 60  1  0  0  0
 32 27  1  0  0  0
 50 45  1  0  0  0
 33 36  1  0  0  0
  2  5  1  0  0  0
  7 10  1  0  0  0
 12 13  1  0  0  0
 12 14  1  0  0  0
 20 22  1  0  0  0
 20 23  1  0  0  0
 21 24  1  0  0  0
 21 25  1  0  0  0
 40 41  1  0  0  0
M  END
> <minimizedAffinity>
12.56768

> <CNNscore>
0.4269659817

> <CNNaffinity>
8.4758033752

> <CNN_VS>
3.6188797951

> <CNNaffinity_variance>
0.9632786512

$$$$
[H]c1c([H])c([H])c2c(c1[H])c1c3c(c4c5c([H])c([H])c([H])c([H])c5n5c4c1n2[C@@]1(C([H])([H])[H])O[C@]5([H])C([H])([H])[C@]([H])(N([H])C([H])([H])[H])[C@]1([H])OC([H])([H])[H])C(=O)N([H])C3([H])[H]


 37 44  0  0  0  0  0  0  0  0999 V2000
   10.1449   44.6950  133.3046 C   0  0  0  0  0  0  0  0  0  0  0  0
   10.7120   45.9878  133.8574 C   0  0  0  0  0  0  0  0  0  0  0  0
   11.5451   46.7187  132.8429 C   0  0  0  0  0  0  0  0  0  0  0  0
   12.2402   45.9986  131.9661 O   0  0  0  0  0  0  0  0  0  0  0  0
   11.6862   44.8426  131.4067 C   0  0  0  0  0  0  0  0  0  0  0  0
   12.8919   44.1835  130.7616 C   0  0  0  0  0  0  0  0  0  0  0  0
   11.2520   44.0000  132.5874 C   0  0  0  0  0  0  0  0  0  0  0  0
   10.6431   45.1647  130.4609 N   0  0  0  0  0  0  0  0  0  0  0  0
   10.2504   44.3628  129.4408 C   0  0  0  0  0  0  0  0  0  0  0  0
   10.5858   43.1003  129.0545 C   0  0  0  0  0  0  0  0  0  0  0  0
   10.0200   42.4697  127.9439 C   0  0  0  0  0  0  0  0  0  0  0  0
    9.0827   43.1148  127.1847 C   0  0  0  0  0  0  0  0  0  0  0  0
    8.7366   44.3838  127.5644 C   0  0  0  0  0  0  0  0  0  0  0  0
    9.2883   45.0155  128.6578 C   0  0  0  0  0  0  0  0  0  0  0  0
    9.0940   46.2459  129.2294 C   0  0  0  0  0  0  0  0  0  0  0  0
    8.2705   47.2996  128.8916 C   0  0  0  0  0  0  0  0  0  0  0  0
    7.3063   47.4615  127.7756 C   0  0  0  0  0  0  0  0  0  0  0  0
    6.7568   48.7648  127.9451 N   0  0  0  0  0  0  0  0  0  0  0  0
    7.3295   49.4010  129.1036 C   0  0  0  0  0  0  0  0  0  0  0  0
    6.9956   50.5426  129.4448 O   0  0  0  0  0  0  0  0  0  0  0  0
    8.2709   48.4610  129.6731 C   0  0  0  0  0  0  0  0  0  0  0  0
    9.1160   48.5059  130.7813 C   0  0  0  0  0  0  0  0  0  0  0  0
    9.3571   49.4497  131.7775 C   0  0  0  0  0  0  0  0  0  0  0  0
    8.8683   50.6902  132.0112 C   0  0  0  0  0  0  0  0  0  0  0  0
    9.3291   51.3999  133.1345 C   0  0  0  0  0  0  0  0  0  0  0  0
   10.2546   50.8449  133.9747 C   0  0  0  0  0  0  0  0  0  0  0  0
   10.7636   49.5861  133.7549 C   0  0  0  0  0  0  0  0  0  0  0  0
   10.3018   48.8985  132.6459 C   0  0  0  0  0  0  0  0  0  0  0  0
   10.6250   47.6763  132.2025 N   0  0  0  0  0  0  0  0  0  0  0  0
    9.9306   47.4271  131.0899 C   0  0  0  0  0  0  0  0  0  0  0  0
    9.9065   46.3107  130.3000 C   0  0  0  0  0  0  0  0  0  0  0  0
    6.0445   49.1799  127.3116 H   0  0  0  0  0  0  0  0  0  0  0  0
    8.7055   42.8045  133.8744 C   0  0  0  0  0  0  0  0  0  0  0  0
    9.3800   43.9859  134.2254 N   0  0  0  0  0  0  0  0  0  0  0  0
    8.8011   44.5529  134.8804 H   0  0  0  0  0  0  0  0  0  0  0  0
   12.3454   43.9684  133.4378 O   0  0  0  0  0  0  0  0  0  0  0  0
   12.1619   43.5802  134.7213 C   0  0  0  0  0  0  0  0  0  0  0  0
 33 34  1  0  0  0
 34  1  1  0  0  0
  1  2  1  0  0  0
  2  3  1  0  0  0
  3  4  1  0  0  0
  4  5  1  0  0  0
  5  6  1  0  0  0
  5  7  1  0  0  0
  7 36  1  0  0  0
 36 37  1  0  0  0
  5  8  1  0  0  0
  8  9  1  0  0  0
  9 10  2  0  0  0
 10 11  1  0  0  0
 11 12  2  0  0  0
 12 13  1  0  0  0
 13 14  2  0  0  0
 14 15  1  0  0  0
 15 16  2  0  0  0
 16 17  1  0  0  0
 17 18  1  0  0  0
 18 19  1  0  0  0
 19 20  2  0  0  0
 19 21  1  0  0  0
 21 22  2  0  0  0
 22 23  1  0  0  0
 23 24  2  0  0  0
 24 25  1  0  0  0
 25 26  2  0  0  0
 26 27  1  0  0  0
 27 28  2  0  0  0
 28 29  1  0  0  0
 29 30  1  0  0  0
 30 31  2  0  0  0
  7  1  1  0  0  0
 31  8  1  0  0  0
 29  3  1  0  0  0
 14  9  1  0  0  0
 31 15  1  0  0  0
 21 16  1  0  0  0
 30 22  1  0  0  0
 28 23  1  0  0  0
 34 35  1  0  0  0
 18 32  1  0  0  0
M  END
> <minimizedAffinity>
5.14527

> <CNNscore>
0.5312809944

> <CNNaffinity>
7.8232984543

> <CNN_VS>
4.1563696861

> <CNNaffinity_variance>
0.3354256153

$$$$
[H]c1c([H])c([H])c2c(c1[H])c1c3c(c4c5c([H])c([H])c([H])c([H])c5n5c4c1n2[C@@]1(C([H])([H])[H])O[C@]5([H])C([H])([H])[C@]([H])(N([H])C([H])([H])[H])[C@]1([H])OC([H])([H])[H])C(=O)N([H])C3([H])[H]


 37 44  0  0  0  0  0  0  0  0999 V2000
    9.2473   43.0169  132.1455 C   0  0  0  0  0  0  0  0  0  0  0  0
    9.5180   43.6789  133.4823 C   0  0  0  0  0  0  0  0  0  0  0  0
   10.6023   44.7151  133.3903 C   0  0  0  0  0  0  0  0  0  0  0  0
   11.5936   44.5105  132.5267 O   0  0  0  0  0  0  0  0  0  0  0  0
   11.3295   43.9619  131.2675 C   0  0  0  0  0  0  0  0  0  0  0  0
   12.7182   43.6010  130.7722 C   0  0  0  0  0  0  0  0  0  0  0  0
   10.5699   42.6817  131.5446 C   0  0  0  0  0  0  0  0  0  0  0  0
   10.6520   44.9095  130.4133 N   0  0  0  0  0  0  0  0  0  0  0  0
   10.6751   44.8822  129.0581 C   0  0  0  0  0  0  0  0  0  0  0  0
   11.1937   44.0159  128.1437 C   0  0  0  0  0  0  0  0  0  0  0  0
   11.0750   44.2051  126.7648 C   0  0  0  0  0  0  0  0  0  0  0  0
   10.4151   45.2965  126.2703 C   0  0  0  0  0  0  0  0  0  0  0  0
    9.8884   46.1735  127.1802 C   0  0  0  0  0  0  0  0  0  0  0  0
    9.9995   45.9968  128.5423 C   0  0  0  0  0  0  0  0  0  0  0  0
    9.5525   46.7124  129.6223 C   0  0  0  0  0  0  0  0  0  0  0  0
    8.8331   47.8855  129.7171 C   0  0  0  0  0  0  0  0  0  0  0  0
    8.2966   48.7850  128.6662 C   0  0  0  0  0  0  0  0  0  0  0  0
    7.6482   49.8379  129.3736 N   0  0  0  0  0  0  0  0  0  0  0  0
    7.7567   49.6255  130.7941 C   0  0  0  0  0  0  0  0  0  0  0  0
    7.2618   50.4180  131.6054 O   0  0  0  0  0  0  0  0  0  0  0  0
    8.5018   48.3984  130.9767 C   0  0  0  0  0  0  0  0  0  0  0  0
    8.9172   47.6900  132.1037 C   0  0  0  0  0  0  0  0  0  0  0  0
    8.7516   47.8693  133.4754 C   0  0  0  0  0  0  0  0  0  0  0  0
    8.1420   48.8259  134.2142 C   0  0  0  0  0  0  0  0  0  0  0  0
    8.1532   48.7100  135.6157 C   0  0  0  0  0  0  0  0  0  0  0  0
    8.7694   47.6489  136.2197 C   0  0  0  0  0  0  0  0  0  0  0  0
    9.3943   46.6665  135.4872 C   0  0  0  0  0  0  0  0  0  0  0  0
    9.3760   46.7926  134.1090 C   0  0  0  0  0  0  0  0  0  0  0  0
    9.9002   45.9928  133.1706 N   0  0  0  0  0  0  0  0  0  0  0  0
    9.6396   46.5140  131.9696 C   0  0  0  0  0  0  0  0  0  0  0  0
    9.9489   46.0462  130.7221 C   0  0  0  0  0  0  0  0  0  0  0  0
    7.1702   50.6374  128.9118 H   0  0  0  0  0  0  0  0  0  0  0  0
    7.4068   41.7867  131.1113 C   0  0  0  0  0  0  0  0  0  0  0  0
    8.2577   42.0404  132.2001 N   0  0  0  0  0  0  0  0  0  0  0  0
    7.7321   41.9638  133.0965 H   0  0  0  0  0  0  0  0  0  0  0  0
   11.3103   42.0169  132.5087 O   0  0  0  0  0  0  0  0  0  0  0  0
   11.5199   40.6873  132.3677 C   0  0  0  0  0  0  0  0  0  0  0  0
 33 34  1  0  0  0
 34  1  1  0  0  0
  1  2  1  0  0  0
  2  3  1  0  0  0
  3  4  1  0  0  0
  4  5  1  0  0  0
  5  6  1  0  0  0
  5  7  1  0  0  0
  7 36  1  0  0  0
 36 37  1  0  0  0
  5  8  1  0  0  0
  8  9  1  0  0  0
  9 10  2  0  0  0
 10 11  1  0  0  0
 11 12  2  0  0  0
 12 13  1  0  0  0
 13 14  2  0  0  0
 14 15  1  0  0  0
 15 16  2  0  0  0
 16 17  1  0  0  0
 17 18  1  0  0  0
 18 19  1  0  0  0
 19 20  2  0  0  0
 19 21  1  0  0  0
 21 22  2  0  0  0
 22 23  1  0  0  0
 23 24  2  0  0  0
 24 25  1  0  0  0
 25 26  2  0  0  0
 26 27  1  0  0  0
 27 28  2  0  0  0
 28 29  1  0  0  0
 29 30  1  0  0  0
 30 31  2  0  0  0
  7  1  1  0  0  0
 31  8  1  0  0  0
 29  3  1  0  0  0
 14  9  1  0  0  0
 31 15  1  0  0  0
 21 16  1  0  0  0
 30 22  1  0  0  0
 28 23  1  0  0  0
 34 35  1  0  0  0
 18 32  1  0  0  0
M  END
> <minimizedAffinity>
9.59469

> <CNNscore>
0.4076931477

> <CNNaffinity>
7.4577965736

> <CNN_VS>
3.0404925346

> <CNNaffinity_variance>
0.2554444373

$$$$
[H]c1c([H])c([H])c2c(c1[H])c1c3c(c4c5c([H])c([H])c([H])c([H])c5n5c4c1n2[C@@]1(C([H])([H])[H])O[C@]5([H])C([H])([H])[C@]([H])(N([H])C([H])([H])[H])[C@]1([H])OC([H])([H])[H])C(=O)N([H])C3([H])[H]


 37 44  0  0  0  0  0  0  0  0999 V2000
    8.7014   48.2185  129.6318 C   0  0  0  0  0  0  0  0  0  0  0  0
    9.8057   47.6570  128.7578 C   0  0  0  0  0  0  0  0  0  0  0  0
   10.8392   46.9169  129.5590 C   0  0  0  0  0  0  0  0  0  0  0  0
   11.1071   47.3490  130.7886 O   0  0  0  0  0  0  0  0  0  0  0  0
   10.0753   47.8031  131.6166 C   0  0  0  0  0  0  0  0  0  0  0  0
   10.8356   48.4880  132.7378 C   0  0  0  0  0  0  0  0  0  0  0  0
    9.3549   48.8612  130.8078 C   0  0  0  0  0  0  0  0  0  0  0  0
    9.2512   46.7096  132.0765 N   0  0  0  0  0  0  0  0  0  0  0  0
    8.5045   46.7276  133.2079 C   0  0  0  0  0  0  0  0  0  0  0  0
    8.2270   47.6850  134.1364 C   0  0  0  0  0  0  0  0  0  0  0  0
    7.3986   47.4580  135.2380 C   0  0  0  0  0  0  0  0  0  0  0  0
    6.8200   46.2332  135.4281 C   0  0  0  0  0  0  0  0  0  0  0  0
    7.0907   45.2634  134.5003 C   0  0  0  0  0  0  0  0  0  0  0  0
    7.9063   45.4761  133.4102 C   0  0  0  0  0  0  0  0  0  0  0  0
    8.3024   44.6842  132.3642 C   0  0  0  0  0  0  0  0  0  0  0  0
    8.0236   43.3717  132.0444 C   0  0  0  0  0  0  0  0  0  0  0  0
    7.1922   42.3573  132.7379 C   0  0  0  0  0  0  0  0  0  0  0  0
    7.2884   41.1851  131.9341 N   0  0  0  0  0  0  0  0  0  0  0  0
    8.1271   41.4324  130.7895 C   0  0  0  0  0  0  0  0  0  0  0  0
    8.3504   40.5514  129.9499 O   0  0  0  0  0  0  0  0  0  0  0  0
    8.5709   42.8064  130.8866 C   0  0  0  0  0  0  0  0  0  0  0  0
    9.3877   43.6067  130.0887 C   0  0  0  0  0  0  0  0  0  0  0  0
   10.0611   43.4067  128.8854 C   0  0  0  0  0  0  0  0  0  0  0  0
   10.1860   42.3377  128.0644 C   0  0  0  0  0  0  0  0  0  0  0  0
   10.9563   42.4674  126.8949 C   0  0  0  0  0  0  0  0  0  0  0  0
   11.5674   43.6533  126.5942 C   0  0  0  0  0  0  0  0  0  0  0  0
   11.4530   44.7511  127.4150 C   0  0  0  0  0  0  0  0  0  0  0  0
   10.6922   44.6100  128.5627 C   0  0  0  0  0  0  0  0  0  0  0  0
   10.4197   45.5040  129.5226 N   0  0  0  0  0  0  0  0  0  0  0  0
    9.6464   44.9223  130.4422 C   0  0  0  0  0  0  0  0  0  0  0  0
    9.0977   45.4387  131.5837 C   0  0  0  0  0  0  0  0  0  0  0  0
    6.8131   40.2881  132.1588 H   0  0  0  0  0  0  0  0  0  0  0  0
    6.4002   48.9913  129.3531 C   0  0  0  0  0  0  0  0  0  0  0  0
    7.7353   48.9235  128.9209 N   0  0  0  0  0  0  0  0  0  0  0  0
    7.7767   48.8465  127.8826 H   0  0  0  0  0  0  0  0  0  0  0  0
   10.3501   49.6970  130.3276 O   0  0  0  0  0  0  0  0  0  0  0  0
   10.9902   50.5143  131.1960 C   0  0  0  0  0  0  0  0  0  0  0  0
 33 34  1  0  0  0
 34  1  1  0  0  0
  1  2  1  0  0  0
  2  3  1  0  0  0
  3  4  1  0  0  0
  4  5  1  0  0  0
  5  6  1  0  0  0
  5  7  1  0  0  0
  7 36  1  0  0  0
 36 37  1  0  0  0
  5  8  1  0  0  0
  8  9  1  0  0  0
  9 10  2  0  0  0
 10 11  1  0  0  0
 11 12  2  0  0  0
 12 13  1  0  0  0
 13 14  2  0  0  0
 14 15  1  0  0  0
 15 16  2  0  0  0
 16 17  1  0  0  0
 17 18  1  0  0  0
 18 19  1  0  0  0
 19 20  2  0  0  0
 19 21  1  0  0  0
 21 22  2  0  0  0
 22 23  1  0  0  0
 23 24  2  0  0  0
 24 25  1  0  0  0
 25 26  2  0  0  0
 26 27  1  0  0  0
 27 28  2  0  0  0
 28 29  1  0  0  0
 29 30  1  0  0  0
 30 31  2  0  0  0
  7  1  1  0  0  0
 31  8  1  0  0  0
 29  3  1  0  0  0
 14  9  1  0  0  0
 31 15  1  0  0  0
 21 16  1  0  0  0
 30 22  1  0  0  0
 28 23  1  0  0  0
 34 35  1  0  0  0
 18 32  1  0  0  0
M  END
> <minimizedAffinity>
27.05713

> <CNNscore>
0.3061541915

> <CNNaffinity>
7.1118531227

> <CNN_VS>
2.1773235798

> <CNNaffinity_variance>
0.3489406705

$$$$
[H]c1c([H])c([H])c2c(c1[H])c1c3c(c4c5c([H])c([H])c([H])c([H])c5n5c4c1n2[C@@]1(C([H])([H])[H])O[C@]5([H])C([H])([H])[C@]([H])(N([H])C([H])([H])[H])[C@]1([H])OC([H])([H])[H])C(=O)N([H])C3([H])[H]


 37 44  0  0  0  0  0  0  0  0999 V2000
    6.9832   46.7342  129.7784 C   0  0  0  0  0  0  0  0  0  0  0  0
    7.5801   45.5233  129.0883 C   0  0  0  0  0  0  0  0  0  0  0  0
    9.0741   45.6237  128.9634 C   0  0  0  0  0  0  0  0  0  0  0  0
    9.6094   46.8295  128.7910 O   0  0  0  0  0  0  0  0  0  0  0  0
    9.0985   47.9329  129.4821 C   0  0  0  0  0  0  0  0  0  0  0  0
    9.7477   49.0989  128.7587 C   0  0  0  0  0  0  0  0  0  0  0  0
    7.6160   47.9414  129.1743 C   0  0  0  0  0  0  0  0  0  0  0  0
    9.4377   47.8771  130.8850 N   0  0  0  0  0  0  0  0  0  0  0  0
    9.5153   48.9541  131.7048 C   0  0  0  0  0  0  0  0  0  0  0  0
    9.2446   50.2795  131.5441 C   0  0  0  0  0  0  0  0  0  0  0  0
    9.3975   51.2161  132.5692 C   0  0  0  0  0  0  0  0  0  0  0  0
    9.8355   50.8248  133.8045 C   0  0  0  0  0  0  0  0  0  0  0  0
   10.1094   49.4946  133.9780 C   0  0  0  0  0  0  0  0  0  0  0  0
    9.9622   48.5621  132.9742 C   0  0  0  0  0  0  0  0  0  0  0  0
   10.1538   47.2064  132.9155 C   0  0  0  0  0  0  0  0  0  0  0  0
   10.5796   46.2938  133.8582 C   0  0  0  0  0  0  0  0  0  0  0  0
   10.9850   46.4753  135.2737 C   0  0  0  0  0  0  0  0  0  0  0  0
   11.3271   45.1707  135.7326 N   0  0  0  0  0  0  0  0  0  0  0  0
   11.1474   44.2074  134.6770 C   0  0  0  0  0  0  0  0  0  0  0  0
   11.3833   43.0054  134.8524 O   0  0  0  0  0  0  0  0  0  0  0  0
   10.6799   44.9393  133.5194 C   0  0  0  0  0  0  0  0  0  0  0  0
   10.3376   44.5603  132.2219 C   0  0  0  0  0  0  0  0  0  0  0  0
   10.2832   43.3396  131.5523 C   0  0  0  0  0  0  0  0  0  0  0  0
   10.5750   42.0705  131.9219 C   0  0  0  0  0  0  0  0  0  0  0  0
   10.4074   41.0358  130.9842 C   0  0  0  0  0  0  0  0  0  0  0  0
    9.9576   41.3090  129.7219 C   0  0  0  0  0  0  0  0  0  0  0  0
    9.6557   42.5915  129.3267 C   0  0  0  0  0  0  0  0  0  0  0  0
    9.8250   43.6004  130.2590 C   0  0  0  0  0  0  0  0  0  0  0  0
    9.6102   44.9176  130.1414 N   0  0  0  0  0  0  0  0  0  0  0  0
    9.9139   45.5060  131.3006 C   0  0  0  0  0  0  0  0  0  0  0  0
    9.8330   46.8213  131.6667 C   0  0  0  0  0  0  0  0  0  0  0  0
   11.6576   44.9640  136.6965 H   0  0  0  0  0  0  0  0  0  0  0  0
    4.7800   47.7615  129.5313 C   0  0  0  0  0  0  0  0  0  0  0  0
    5.5980   46.6790  129.8962 N   0  0  0  0  0  0  0  0  0  0  0  0
    5.2243   46.2142  130.7506 H   0  0  0  0  0  0  0  0  0  0  0  0
    7.5262   47.8153  127.7974 O   0  0  0  0  0  0  0  0  0  0  0  0
    6.7902   48.7171  127.1069 C   0  0  0  0  0  0  0  0  0  0  0  0
 33 34  1  0  0  0
 34  1  1  0  0  0
  1  2  1  0  0  0
  2  3  1  0  0  0
  3  4  1  0  0  0
  4  5  1  0  0  0
  5  6  1  0  0  0
  5  7  1  0  0  0
  7 36  1  0  0  0
 36 37  1  0  0  0
  5  8  1  0  0  0
  8  9  1  0  0  0
  9 10  2  0  0  0
 10 11  1  0  0  0
 11 12  2  0  0  0
 12 13  1  0  0  0
 13 14  2  0  0  0
 14 15  1  0  0  0
 15 16  2  0  0  0
 16 17  1  0  0  0
 17 18  1  0  0  0
 18 19  1  0  0  0
 19 20  2  0  0  0
 19 21  1  0  0  0
 21 22  2  0  0  0
 22 23  1  0  0  0
 23 24  2  0  0  0
 24 25  1  0  0  0
 25 26  2  0  0  0
 26 27  1  0  0  0
 27 28  2  0  0  0
 28 29  1  0  0  0
 29 30  1  0  0  0
 30 31  2  0  0  0
  7  1  1  0  0  0
 31  8  1  0  0  0
 29  3  1  0  0  0
 14  9  1  0  0  0
 31 15  1  0  0  0
 21 16  1  0  0  0
 30 22  1  0  0  0
 28 23  1  0  0  0
 34 35  1  0  0  0
 18 32  1  0  0  0
M  END
> <minimizedAffinity>
11.65503

> <CNNscore>
0.2172684968

> <CNNaffinity>
7.2739257812

> <CNN_VS>
1.5803948641

> <CNNaffinity_variance>
0.2198922187

$$$$
[H]c1c([H])c([H])c2c(c1[H])c1c3c(c4c5c([H])c([H])c([H])c([H])c5n5c4c1n2[C@@]1(C([H])([H])[H])O[C@]5([H])C([H])([H])[C@]([H])(N([H])C([H])([H])[H])[C@]1([H])OC([H])([H])[H])C(=O)N([H])C3([H])[H]


 37 44  0  0  0  0  0  0  0  0999 V2000
    9.3477   48.8914  130.4476 C   0  0  0  0  0  0  0  0  0  0  0  0
    8.6328   49.0495  131.7753 C   0  0  0  0  0  0  0  0  0  0  0  0
    7.7903   47.8511  132.1094 C   0  0  0  0  0  0  0  0  0  0  0  0
    7.2139   47.1909  131.1083 O   0  0  0  0  0  0  0  0  0  0  0  0
    7.9032   46.9882  129.9083 C   0  0  0  0  0  0  0  0  0  0  0  0
    6.8012   46.5205  128.9751 C   0  0  0  0  0  0  0  0  0  0  0  0
    8.3508   48.3670  129.4708 C   0  0  0  0  0  0  0  0  0  0  0  0
    8.9607   46.0172  130.0675 N   0  0  0  0  0  0  0  0  0  0  0  0
    9.4812   45.2699  129.0632 C   0  0  0  0  0  0  0  0  0  0  0  0
    9.2870   45.2402  127.7152 C   0  0  0  0  0  0  0  0  0  0  0  0
    9.9683   44.3629  126.8683 C   0  0  0  0  0  0  0  0  0  0  0  0
   10.8802   43.4789  127.3762 C   0  0  0  0  0  0  0  0  0  0  0  0
   11.0847   43.5006  128.7298 C   0  0  0  0  0  0  0  0  0  0  0  0
   10.4183   44.3615  129.5745 C   0  0  0  0  0  0  0  0  0  0  0  0
   10.4652   44.5743  130.9276 C   0  0  0  0  0  0  0  0  0  0  0  0
   11.2030   43.9788  131.9294 C   0  0  0  0  0  0  0  0  0  0  0  0
   12.2061   42.8868  131.8806 C   0  0  0  0  0  0  0  0  0  0  0  0
   12.6209   42.7023  133.2309 N   0  0  0  0  0  0  0  0  0  0  0  0
   11.9298   43.6239  134.0955 C   0  0  0  0  0  0  0  0  0  0  0  0
   12.1362   43.6437  135.3154 O   0  0  0  0  0  0  0  0  0  0  0  0
   11.0516   44.4074  133.2534 C   0  0  0  0  0  0  0  0  0  0  0  0
   10.1478   45.4377  133.5103 C   0  0  0  0  0  0  0  0  0  0  0  0
    9.7661   46.1267  134.6596 C   0  0  0  0  0  0  0  0  0  0  0  0
   10.1229   46.0197  135.9610 C   0  0  0  0  0  0  0  0  0  0  0  0
    9.5379   46.8901  136.8981 C   0  0  0  0  0  0  0  0  0  0  0  0
    8.6250   47.8272  136.4997 C   0  0  0  0  0  0  0  0  0  0  0  0
    8.2490   47.9521  135.1824 C   0  0  0  0  0  0  0  0  0  0  0  0
    8.8322   47.0894  134.2705 C   0  0  0  0  0  0  0  0  0  0  0  0
    8.6494   46.9941  132.9467 N   0  0  0  0  0  0  0  0  0  0  0  0
    9.4228   46.0124  132.4774 C   0  0  0  0  0  0  0  0  0  0  0  0
    9.5940   45.5638  131.1967 C   0  0  0  0  0  0  0  0  0  0  0  0
   13.3240   41.9970  133.5296 H   0  0  0  0  0  0  0  0  0  0  0  0
   11.4891   49.8662  129.7882 C   0  0  0  0  0  0  0  0  0  0  0  0
   10.1253   49.9920  130.1016 N   0  0  0  0  0  0  0  0  0  0  0  0
    9.9570   50.8662  130.6429 H   0  0  0  0  0  0  0  0  0  0  0  0
    7.2212   49.1645  129.5580 O   0  0  0  0  0  0  0  0  0  0  0  0
    7.1906   50.3289  128.8688 C   0  0  0  0  0  0  0  0  0  0  0  0
 33 34  1  0  0  0
 34  1  1  0  0  0
  1  2  1  0  0  0
  2  3  1  0  0  0
  3  4  1  0  0  0
  4  5  1  0  0  0
  5  6  1  0  0  0
  5  7  1  0  0  0
  7 36  1  0  0  0
 36 37  1  0  0  0
  5  8  1  0  0  0
  8  9  1  0  0  0
  9 10  2  0  0  0
 10 11  1  0  0  0
 11 12  2  0  0  0
 12 13  1  0  0  0
 13 14  2  0  0  0
 14 15  1  0  0  0
 15 16  2  0  0  0
 16 17  1  0  0  0
 17 18  1  0  0  0
 18 19  1  0  0  0
 19 20  2  0  0  0
 19 21  1  0  0  0
 21 22  2  0  0  0
 22 23  1  0  0  0
 23 24  2  0  0  0
 24 25  1  0  0  0
 25 26  2  0  0  0
 26 27  1  0  0  0
 27 28  2  0  0  0
 28 29  1  0  0  0
 29 30  1  0  0  0
 30 31  2  0  0  0
  7  1  1  0  0  0
 31  8  1  0  0  0
 29  3  1  0  0  0
 14  9  1  0  0  0
 31 15  1  0  0  0
 21 16  1  0  0  0
 30 22  1  0  0  0
 28 23  1  0  0  0
 34 35  1  0  0  0
 18 32  1  0  0  0
M  END
> <minimizedAffinity>
7.91937

> <CNNscore>
0.2149248272

> <CNNaffinity>
7.2131261826

> <CNN_VS>
1.5502798557

> <CNNaffinity_variance>
0.1949832886

$$$$
[H]c1c([H])c([H])c2c(c1[H])c1c3c(c4c5c([H])c([H])c([H])c([H])c5n5c4c1n2[C@@]1(C([H])([H])[H])O[C@]5([H])C([H])([H])[C@]([H])(N([H])C([H])([H])[H])[C@]1([H])OC([H])([H])[H])C(=O)N([H])C3([H])[H]


 37 44  0  0  0  0  0  0  0  0999 V2000
    8.3484   46.5045  134.1771 C   0  0  0  0  0  0  0  0  0  0  0  0
    7.9973   47.8523  133.5783 C   0  0  0  0  0  0  0  0  0  0  0  0
    9.1928   48.5286  132.9692 C   0  0  0  0  0  0  0  0  0  0  0  0
   10.3808   48.3317  133.5352 O   0  0  0  0  0  0  0  0  0  0  0  0
   10.7271   47.0685  134.0257 C   0  0  0  0  0  0  0  0  0  0  0  0
   11.9636   47.3687  134.8534 C   0  0  0  0  0  0  0  0  0  0  0  0
    9.6019   46.6856  134.9638 C   0  0  0  0  0  0  0  0  0  0  0  0
   10.9780   46.1379  132.9498 N   0  0  0  0  0  0  0  0  0  0  0  0
   11.7561   45.0323  133.0501 C   0  0  0  0  0  0  0  0  0  0  0  0
   12.4110   44.4339  134.0839 C   0  0  0  0  0  0  0  0  0  0  0  0
   13.1592   43.2638  133.9342 C   0  0  0  0  0  0  0  0  0  0  0  0
   13.2628   42.6604  132.7110 C   0  0  0  0  0  0  0  0  0  0  0  0
   12.6075   43.2522  131.6647 C   0  0  0  0  0  0  0  0  0  0  0  0
   11.8668   44.4062  131.8008 C   0  0  0  0  0  0  0  0  0  0  0  0
   11.1274   45.1571  130.9247 C   0  0  0  0  0  0  0  0  0  0  0  0
   10.8759   45.0179  129.5756 C   0  0  0  0  0  0  0  0  0  0  0  0
   11.3318   43.9958  128.6017 C   0  0  0  0  0  0  0  0  0  0  0  0
   10.7510   44.3809  127.3592 N   0  0  0  0  0  0  0  0  0  0  0  0
    9.9645   45.5761  127.5253 C   0  0  0  0  0  0  0  0  0  0  0  0
    9.3640   46.0914  126.5740 O   0  0  0  0  0  0  0  0  0  0  0  0
   10.0621   45.9493  128.9200 C   0  0  0  0  0  0  0  0  0  0  0  0
    9.5278   46.9965  129.6699 C   0  0  0  0  0  0  0  0  0  0  0  0
    8.6769   48.0605  129.3781 C   0  0  0  0  0  0  0  0  0  0  0  0
    8.0791   48.4782  128.2377 C   0  0  0  0  0  0  0  0  0  0  0  0
    7.2578   49.6190  128.2813 C   0  0  0  0  0  0  0  0  0  0  0  0
    7.0677   50.2930  129.4560 C   0  0  0  0  0  0  0  0  0  0  0  0
    7.6659   49.8851  130.6255 C   0  0  0  0  0  0  0  0  0  0  0  0
    8.4716   48.7610  130.5688 C   0  0  0  0  0  0  0  0  0  0  0  0
    9.1645   48.1561  131.5430 N   0  0  0  0  0  0  0  0  0  0  0  0
    9.8030   47.1047  131.0246 C   0  0  0  0  0  0  0  0  0  0  0  0
   10.6066   46.1780  131.6299 C   0  0  0  0  0  0  0  0  0  0  0  0
   10.8876   43.8599  126.4699 H   0  0  0  0  0  0  0  0  0  0  0  0
    6.9079   44.5451  134.4145 C   0  0  0  0  0  0  0  0  0  0  0  0
    7.2646   45.8584  134.7635 N   0  0  0  0  0  0  0  0  0  0  0  0
    6.4117   46.4358  134.9214 H   0  0  0  0  0  0  0  0  0  0  0  0
    9.4222   47.7839  135.7890 O   0  0  0  0  0  0  0  0  0  0  0  0
    9.2255   47.5796  137.1124 C   0  0  0  0  0  0  0  0  0  0  0  0
 33 34  1  0  0  0
 34  1  1  0  0  0
  1  2  1  0  0  0
  2  3  1  0  0  0
  3  4  1  0  0  0
  4  5  1  0  0  0
  5  6  1  0  0  0
  5  7  1  0  0  0
  7 36  1  0  0  0
 36 37  1  0  0  0
  5  8  1  0  0  0
  8  9  1  0  0  0
  9 10  2  0  0  0
 10 11  1  0  0  0
 11 12  2  0  0  0
 12 13  1  0  0  0
 13 14  2  0  0  0
 14 15  1  0  0  0
 15 16  2  0  0  0
 16 17  1  0  0  0
 17 18  1  0  0  0
 18 19  1  0  0  0
 19 20  2  0  0  0
 19 21  1  0  0  0
 21 22  2  0  0  0
 22 23  1  0  0  0
 23 24  2  0  0  0
 24 25  1  0  0  0
 25 26  2  0  0  0
 26 27  1  0  0  0
 27 28  2  0  0  0
 28 29  1  0  0  0
 29 30  1  0  0  0
 30 31  2  0  0  0
  7  1  1  0  0  0
 31  8  1  0  0  0
 29  3  1  0  0  0
 14  9  1  0  0  0
 31 15  1  0  0  0
 21 16  1  0  0  0
 30 22  1  0  0  0
 28 23  1  0  0  0
 34 35  1  0  0  0
 18 32  1  0  0  0
M  END
> <minimizedAffinity>
12.56999

> <CNNscore>
0.1878933161

> <CNNaffinity>
7.2932791710

> <CNN_VS>
1.3703584671

> <CNNaffinity_variance>
0.3537186086

$$$$
[H]c1c([H])c([H])c2c(c1[H])c1c3c(c4c5c([H])c([H])c([H])c([H])c5n5c4c1n2[C@@]1(C([H])([H])[H])O[C@]5([H])C([H])([H])[C@]([H])(N([H])C([H])([H])[H])[C@]1([H])OC([H])([H])[H])C(=O)N([H])C3([H])[H]


 37 44  0  0  0  0  0  0  0  0999 V2000
   10.4681   44.6147  128.9646 C   0  0  0  0  0  0  0  0  0  0  0  0
    9.2866   45.3351  128.3449 C   0  0  0  0  0  0  0  0  0  0  0  0
    8.1316   45.4504  129.2990 C   0  0  0  0  0  0  0  0  0  0  0  0
    7.9377   44.4643  130.1711 O   0  0  0  0  0  0  0  0  0  0  0  0
    9.0288   43.8478  130.7920 C   0  0  0  0  0  0  0  0  0  0  0  0
    8.3967   42.6137  131.4100 C   0  0  0  0  0  0  0  0  0  0  0  0
    9.9331   43.4091  129.6596 C   0  0  0  0  0  0  0  0  0  0  0  0
    9.6397   44.7201  131.7678 N   0  0  0  0  0  0  0  0  0  0  0  0
   10.3700   44.3001  132.8300 C   0  0  0  0  0  0  0  0  0  0  0  0
   10.8090   43.0793  133.2456 C   0  0  0  0  0  0  0  0  0  0  0  0
   11.5758   42.8997  134.3993 C   0  0  0  0  0  0  0  0  0  0  0  0
   11.9233   43.9727  135.1733 C   0  0  0  0  0  0  0  0  0  0  0  0
   11.4888   45.2050  134.7645 C   0  0  0  0  0  0  0  0  0  0  0  0
   10.7320   45.3938  133.6285 C   0  0  0  0  0  0  0  0  0  0  0  0
   10.2067   46.5056  133.0233 C   0  0  0  0  0  0  0  0  0  0  0  0
   10.2471   47.8431  133.3578 C   0  0  0  0  0  0  0  0  0  0  0  0
   10.8778   48.5399  134.5058 C   0  0  0  0  0  0  0  0  0  0  0  0
   10.5776   49.9192  134.3139 N   0  0  0  0  0  0  0  0  0  0  0  0
    9.8046   50.0992  133.1120 C   0  0  0  0  0  0  0  0  0  0  0  0
    9.4321   51.2208  132.7455 O   0  0  0  0  0  0  0  0  0  0  0  0
    9.6147   48.7847  132.5374 C   0  0  0  0  0  0  0  0  0  0  0  0
    8.9604   48.3254  131.3949 C   0  0  0  0  0  0  0  0  0  0  0  0
    8.2699   48.9491  130.3578 C   0  0  0  0  0  0  0  0  0  0  0  0
    7.9602   50.2417  130.1016 C   0  0  0  0  0  0  0  0  0  0  0  0
    7.2336   50.5466  128.9367 C   0  0  0  0  0  0  0  0  0  0  0  0
    6.8477   49.5536  128.0793 C   0  0  0  0  0  0  0  0  0  0  0  0
    7.1524   48.2342  128.3214 C   0  0  0  0  0  0  0  0  0  0  0  0
    7.8677   47.9478  129.4712 C   0  0  0  0  0  0  0  0  0  0  0  0
    8.2903   46.7671  129.9430 N   0  0  0  0  0  0  0  0  0  0  0  0
    8.9403   46.9727  131.0907 C   0  0  0  0  0  0  0  0  0  0  0  0
    9.5654   46.0816  131.9189 C   0  0  0  0  0  0  0  0  0  0  0  0
   10.8823   50.6737  134.9612 H   0  0  0  0  0  0  0  0  0  0  0  0
   12.8758   44.4983  128.5648 C   0  0  0  0  0  0  0  0  0  0  0  0
   11.5499   44.4779  128.1005 N   0  0  0  0  0  0  0  0  0  0  0  0
   11.4781   44.9736  127.1869 H   0  0  0  0  0  0  0  0  0  0  0  0
    9.1077   42.7443  128.7672 O   0  0  0  0  0  0  0  0  0  0  0  0
    9.6053   42.3889  127.5598 C   0  0  0  0  0  0  0  0  0  0  0  0
 33 34  1  0  0  0
 34  1  1  0  0  0
  1  2  1  0  0  0
  2  3  1  0  0  0
  3  4  1  0  0  0
  4  5  1  0  0  0
  5  6  1  0  0  0
  5  7  1  0  0  0
  7 36  1  0  0  0
 36 37  1  0  0  0
  5  8  1  0  0  0
  8  9  1  0  0  0
  9 10  2  0  0  0
 10 11  1  0  0  0
 11 12  2  0  0  0
 12 13  1  0  0  0
 13 14  2  0  0  0
 14 15  1  0  0  0
 15 16  2  0  0  0
 16 17  1  0  0  0
 17 18  1  0  0  0
 18 19  1  0  0  0
 19 20  2  0  0  0
 19 21  1  0  0  0
 21 22  2  0  0  0
 22 23  1  0  0  0
 23 24  2  0  0  0
 24 25  1  0  0  0
 25 26  2  0  0  0
 26 27  1  0  0  0
 27 28  2  0  0  0
 28 29  1  0  0  0
 29 30  1  0  0  0
 30 31  2  0  0  0
  7  1  1  0  0  0
 31  8  1  0  0  0
 29  3  1  0  0  0
 14  9  1  0  0  0
 31 15  1  0  0  0
 21 16  1  0  0  0
 30 22  1  0  0  0
 28 23  1  0  0  0
 34 35  1  0  0  0
 18 32  1  0  0  0
M  END
> <minimizedAffinity>
0.95257

> <CNNscore>
0.1875155717

> <CNNaffinity>
7.4165077209

> <CNN_VS>
1.3907107115

> <CNNaffinity_variance>
0.0913940817

$$$$
[H]c1c([H])c([H])c2c(c1[H])c1c3c(c4c5c([H])c([H])c([H])c([H])c5n5c4c1n2[C@@]1(C([H])([H])[H])O[C@]5([H])C([H])([H])[C@]([H])(N([H])C([H])([H])[H])[C@]1([H])OC([H])([H])[H])C(=O)N([H])C3([H])[H]


 37 44  0  0  0  0  0  0  0  0999 V2000
    8.2759   43.1658  131.4132 C   0  0  0  0  0  0  0  0  0  0  0  0
    9.6935   42.7603  131.7660 C   0  0  0  0  0  0  0  0  0  0  0  0
   10.7149   43.5509  130.9983 C   0  0  0  0  0  0  0  0  0  0  0  0
   10.4116   43.9323  129.7602 O   0  0  0  0  0  0  0  0  0  0  0  0
    9.1191   44.3706  129.4544 C   0  0  0  0  0  0  0  0  0  0  0  0
    9.1276   44.3746  127.9365 C   0  0  0  0  0  0  0  0  0  0  0  0
    8.2026   43.2619  129.9272 C   0  0  0  0  0  0  0  0  0  0  0  0
    8.8577   45.6726  130.0228 N   0  0  0  0  0  0  0  0  0  0  0  0
    7.9406   46.5521  129.5502 C   0  0  0  0  0  0  0  0  0  0  0  0
    7.0008   46.4926  128.5659 C   0  0  0  0  0  0  0  0  0  0  0  0
    6.1444   47.5551  128.2675 C   0  0  0  0  0  0  0  0  0  0  0  0
    6.2206   48.7245  128.9730 C   0  0  0  0  0  0  0  0  0  0  0  0
    7.1608   48.7953  129.9657 C   0  0  0  0  0  0  0  0  0  0  0  0
    8.0106   47.7537  130.2685 C   0  0  0  0  0  0  0  0  0  0  0  0
    8.9973   47.5877  131.2051 C   0  0  0  0  0  0  0  0  0  0  0  0
    9.4955   48.4288  132.1782 C   0  0  0  0  0  0  0  0  0  0  0  0
    9.1297   49.8200  132.5417 C   0  0  0  0  0  0  0  0  0  0  0  0
    9.9935   50.1614  133.6218 N   0  0  0  0  0  0  0  0  0  0  0  0
   10.8592   49.0544  133.9375 C   0  0  0  0  0  0  0  0  0  0  0  0
   11.6937   49.1264  134.8483 O   0  0  0  0  0  0  0  0  0  0  0  0
   10.5242   47.9876  133.0190 C   0  0  0  0  0  0  0  0  0  0  0  0
   11.0103   46.6933  132.8375 C   0  0  0  0  0  0  0  0  0  0  0  0
   11.9747   45.9220  133.4826 C   0  0  0  0  0  0  0  0  0  0  0  0
   12.8156   46.1692  134.5142 C   0  0  0  0  0  0  0  0  0  0  0  0
   13.6890   45.1507  134.9359 C   0  0  0  0  0  0  0  0  0  0  0  0
   13.6871   43.9329  134.3137 C   0  0  0  0  0  0  0  0  0  0  0  0
   12.8407   43.6616  133.2639 C   0  0  0  0  0  0  0  0  0  0  0  0
   11.9864   44.6725  132.8588 C   0  0  0  0  0  0  0  0  0  0  0  0
   11.0740   44.6784  131.8777 N   0  0  0  0  0  0  0  0  0  0  0  0
   10.4851   45.8760  131.8481 C   0  0  0  0  0  0  0  0  0  0  0  0
    9.4836   46.3437  131.0424 C   0  0  0  0  0  0  0  0  0  0  0  0
    9.9847   51.0841  134.1010 H   0  0  0  0  0  0  0  0  0  0  0  0
    7.5006   42.0026  133.4173 C   0  0  0  0  0  0  0  0  0  0  0  0
    7.3049   42.4408  132.0968 N   0  0  0  0  0  0  0  0  0  0  0  0
    6.7944   41.7180  131.5469 H   0  0  0  0  0  0  0  0  0  0  0  0
    8.7387   42.0953  129.4063 O   0  0  0  0  0  0  0  0  0  0  0  0
    8.4573   40.9199  130.0153 C   0  0  0  0  0  0  0  0  0  0  0  0
 33 34  1  0  0  0
 34  1  1  0  0  0
  1  2  1  0  0  0
  2  3  1  0  0  0
  3  4  1  0  0  0
  4  5  1  0  0  0
  5  6  1  0  0  0
  5  7  1  0  0  0
  7 36  1  0  0  0
 36 37  1  0  0  0
  5  8  1  0  0  0
  8  9  1  0  0  0
  9 10  2  0  0  0
 10 11  1  0  0  0
 11 12  2  0  0  0
 12 13  1  0  0  0
 13 14  2  0  0  0
 14 15  1  0  0  0
 15 16  2  0  0  0
 16 17  1  0  0  0
 17 18  1  0  0  0
 18 19  1  0  0  0
 19 20  2  0  0  0
 19 21  1  0  0  0
 21 22  2  0  0  0
 22 23  1  0  0  0
 23 24  2  0  0  0
 24 25  1  0  0  0
 25 26  2  0  0  0
 26 27  1  0  0  0
 27 28  2  0  0  0
 28 29  1  0  0  0
 29 30  1  0  0  0
 30 31  2  0  0  0
  7  1  1  0  0  0
 31  8  1  0  0  0
 29  3  1  0  0  0
 14  9  1  0  0  0
 31 15  1  0  0  0
 21 16  1  0  0  0
 30 22  1  0  0  0
 28 23  1  0  0  0
 34 35  1  0  0  0
 18 32  1  0  0  0
M  END
> <minimizedAffinity>
10.85745

> <CNNscore>
0.1769538075

> <CNNaffinity>
7.1642746925

> <CNN_VS>
1.2677457333

> <CNNaffinity_variance>
0.1181199998

$$$$
[H]c1c([H])c([H])c2c(c1[H])c1c3c(c4c5c([H])c([H])c([H])c([H])c5n5c4c1n2[C@@]1(C([H])([H])[H])O[C@]5([H])C([H])([H])[C@]([H])(N([H])C([H])([H])[H])[C@]1([H])OC([H])([H])[H])C(=O)N([H])C3([H])[H]


 37 44  0  0  0  0  0  0  0  0999 V2000
    9.1287   43.7809  129.6116 C   0  0  0  0  0  0  0  0  0  0  0  0
   10.4181   43.2888  130.2394 C   0  0  0  0  0  0  0  0  0  0  0  0
   11.4142   44.3980  130.4273 C   0  0  0  0  0  0  0  0  0  0  0  0
   11.4334   45.3820  129.5318 O   0  0  0  0  0  0  0  0  0  0  0  0
   10.2368   45.8794  129.0055 C   0  0  0  0  0  0  0  0  0  0  0  0
   10.7188   46.7074  127.8280 C   0  0  0  0  0  0  0  0  0  0  0  0
    9.5039   44.6664  128.4724 C   0  0  0  0  0  0  0  0  0  0  0  0
    9.5144   46.6560  129.9860 N   0  0  0  0  0  0  0  0  0  0  0  0
    8.6127   47.6250  129.6926 C   0  0  0  0  0  0  0  0  0  0  0  0
    8.0694   48.0831  128.5305 C   0  0  0  0  0  0  0  0  0  0  0  0
    7.1263   49.1127  128.4864 C   0  0  0  0  0  0  0  0  0  0  0  0
    6.7028   49.7131  129.6401 C   0  0  0  0  0  0  0  0  0  0  0  0
    7.2410   49.2598  130.8145 C   0  0  0  0  0  0  0  0  0  0  0  0
    8.1718   48.2452  130.8698 C   0  0  0  0  0  0  0  0  0  0  0  0
    8.8257   47.6250  131.9023 C   0  0  0  0  0  0  0  0  0  0  0  0
    8.7836   47.8165  133.2677 C   0  0  0  0  0  0  0  0  0  0  0  0
    8.0083   48.7762  134.0917 C   0  0  0  0  0  0  0  0  0  0  0  0
    8.3857   48.5005  135.4374 N   0  0  0  0  0  0  0  0  0  0  0  0
    9.3424   47.4244  135.4768 C   0  0  0  0  0  0  0  0  0  0  0  0
    9.8088   47.0137  136.5468 O   0  0  0  0  0  0  0  0  0  0  0  0
    9.5704   47.0185  134.1066 C   0  0  0  0  0  0  0  0  0  0  0  0
   10.3769   46.0447  133.5188 C   0  0  0  0  0  0  0  0  0  0  0  0
   11.2429   45.0741  134.0182 C   0  0  0  0  0  0  0  0  0  0  0  0
   11.6365   44.7451  135.2708 C   0  0  0  0  0  0  0  0  0  0  0  0
   12.5463   43.6859  135.4393 C   0  0  0  0  0  0  0  0  0  0  0  0
   13.0236   43.0017  134.3556 C   0  0  0  0  0  0  0  0  0  0  0  0
   12.6362   43.3204  133.0748 C   0  0  0  0  0  0  0  0  0  0  0  0
   11.7406   44.3647  132.9230 C   0  0  0  0  0  0  0  0  0  0  0  0
   11.2063   44.8767  131.8061 N   0  0  0  0  0  0  0  0  0  0  0  0
   10.3938   45.8813  132.1419 C   0  0  0  0  0  0  0  0  0  0  0  0
    9.6148   46.6831  131.3539 C   0  0  0  0  0  0  0  0  0  0  0  0
    8.0123   49.0143  136.2605 H   0  0  0  0  0  0  0  0  0  0  0  0
    7.8259   41.8848  130.4352 C   0  0  0  0  0  0  0  0  0  0  0  0
    8.1901   42.7738  129.4100 N   0  0  0  0  0  0  0  0  0  0  0  0
    8.2359   42.2746  128.4967 H   0  0  0  0  0  0  0  0  0  0  0  0
   10.4328   43.9855  127.7023 O   0  0  0  0  0  0  0  0  0  0  0  0
   10.0898   42.7867  127.1760 C   0  0  0  0  0  0  0  0  0  0  0  0
 33 34  1  0  0  0
 34  1  1  0  0  0
  1  2  1  0  0  0
  2  3  1  0  0  0
  3  4  1  0  0  0
  4  5  1  0  0  0
  5  6  1  0  0  0
  5  7  1  0  0  0
  7 36  1  0  0  0
 36 37  1  0  0  0
  5  8  1  0  0  0
  8  9  1  0  0  0
  9 10  2  0  0  0
 10 11  1  0  0  0
 11 12  2  0  0  0
 12 13  1  0  0  0
 13 14  2  0  0  0
 14 15  1  0  0  0
 15 16  2  0  0  0
 16 17  1  0  0  0
 17 18  1  0  0  0
 18 19  1  0  0  0
 19 20  2  0  0  0
 19 21  1  0  0  0
 21 22  2  0  0  0
 22 23  1  0  0  0
 23 24  2  0  0  0
 24 25  1  0  0  0
 25 26  2  0  0  0
 26 27  1  0  0  0
 27 28  2  0  0  0
 28 29  1  0  0  0
 29 30  1  0  0  0
 30 31  2  0  0  0
  7  1  1  0  0  0
 31  8  1  0  0  0
 29  3  1  0  0  0
 14  9  1  0  0  0
 31 15  1  0  0  0
 21 16  1  0  0  0
 30 22  1  0  0  0
 28 23  1  0  0  0
 34 35  1  0  0  0
 18 32  1  0  0  0
M  END
> <minimizedAffinity>
6.63510

> <CNNscore>
0.1555175036

> <CNNaffinity>
7.2162337303

> <CNN_VS>
1.1222506762

> <CNNaffinity_variance>
0.0722772479

$$$$
[H]c1nc2c([H])c([H])c(F)c([H])c2c([H])c1C(=O)N([H])C([H])([H])c1c([H])c([H])c([H])c2c1c(N1C([H])([H])C([H])([H])C([H])([H])C1([H])[H])nn2[H]


 31 35  0  0  0  0  0  0  0  0999 V2000
    8.9744   48.1622  129.0438 C   0  0  0  0  0  0  0  0  0  0  0  0
    7.5949   48.5457  128.7843 C   0  0  0  0  0  0  0  0  0  0  0  0
    6.9740   48.1365  127.6172 C   0  0  0  0  0  0  0  0  0  0  0  0
    5.6560   48.4264  127.3295 C   0  0  0  0  0  0  0  0  0  0  0  0
    4.9298   49.1473  128.2328 C   0  0  0  0  0  0  0  0  0  0  0  0
    5.4956   49.5720  129.3946 C   0  0  0  0  0  0  0  0  0  0  0  0
    4.9877   50.2965  130.3938 N   0  0  0  0  0  0  0  0  0  0  0  0
    5.9295   50.4657  131.2799 N   0  0  0  0  0  0  0  0  0  0  0  0
    7.0979   49.8366  130.8616 C   0  0  0  0  0  0  0  0  0  0  0  0
    6.8206   49.2739  129.6715 C   0  0  0  0  0  0  0  0  0  0  0  0
    4.0018   50.6750  130.4724 H   0  0  0  0  0  0  0  0  0  0  0  0
    8.2759   49.8378  131.6492 N   0  0  0  0  0  0  0  0  0  0  0  0
    9.4190   50.6858  131.5537 C   0  0  0  0  0  0  0  0  0  0  0  0
   10.0072   50.7176  132.9227 C   0  0  0  0  0  0  0  0  0  0  0  0
    9.7770   49.2755  133.3865 C   0  0  0  0  0  0  0  0  0  0  0  0
    8.4996   48.8849  132.7116 C   0  0  0  0  0  0  0  0  0  0  0  0
   10.1315   46.8318  130.8656 C   0  0  0  0  0  0  0  0  0  0  0  0
   10.9529   47.7936  131.0809 O   0  0  0  0  0  0  0  0  0  0  0  0
    9.1295   46.9658  129.8675 N   0  0  0  0  0  0  0  0  0  0  0  0
    8.4739   46.1829  129.7079 H   0  0  0  0  0  0  0  0  0  0  0  0
   11.2989   39.7078  131.3109 F   0  0  0  0  0  0  0  0  0  0  0  0
   11.0537   40.9064  131.9243 C   0  0  0  0  0  0  0  0  0  0  0  0
   10.9438   40.9592  133.3069 C   0  0  0  0  0  0  0  0  0  0  0  0
   10.6963   42.1656  133.9297 C   0  0  0  0  0  0  0  0  0  0  0  0
   10.5629   43.2920  133.1729 C   0  0  0  0  0  0  0  0  0  0  0  0
   10.3240   44.4656  133.7437 N   0  0  0  0  0  0  0  0  0  0  0  0
   10.1830   45.6071  133.0454 C   0  0  0  0  0  0  0  0  0  0  0  0
   10.2768   45.6491  131.6644 C   0  0  0  0  0  0  0  0  0  0  0  0
   10.5266   44.4344  131.0406 C   0  0  0  0  0  0  0  0  0  0  0  0
   10.6651   43.2875  131.7850 C   0  0  0  0  0  0  0  0  0  0  0  0
   10.9143   42.0608  131.1870 C   0  0  0  0  0  0  0  0  0  0  0  0
 21 22  1  0  0  0
 22 23  2  0  0  0
 23 24  1  0  0  0
 24 25  2  0  0  0
 25 26  1  0  0  0
 26 27  2  0  0  0
 27 28  1  0  0  0
 28 29  2  0  0  0
 29 30  1  0  0  0
 30 31  2  0  0  0
 28 17  1  0  0  0
 17 18  2  0  0  0
 17 19  1  0  0  0
 19  1  1  0  0  0
  1  2  1  0  0  0
  2  3  2  0  0  0
  3  4  1  0  0  0
  4  5  2  0  0  0
  5  6  1  0  0  0
  6  7  1  0  0  0
  7  8  1  0  0  0
  8  9  2  0  0  0
  9 12  1  0  0  0
 12 13  1  0  0  0
 13 14  1  0  0  0
 14 15  1  0  0  0
 15 16  1  0  0  0
  9 10  1  0  0  0
 31 22  1  0  0  0
 10  2  1  0  0  0
 30 25  1  0  0  0
 10  6  2  0  0  0
 16 12  1  0  0  0
 19 20  1  0  0  0
  7 11  1  0  0  0
M  END
> <minimizedAffinity>
12.47088

> <CNNscore>
0.4778998196

> <CNNaffinity>
7.2672691345

> <CNN_VS>
3.4730265141

> <CNNaffinity_variance>
1.0573390722

$$$$
[H]c1nc2c([H])c([H])c(F)c([H])c2c([H])c1C(=O)N([H])C([H])([H])c1c([H])c([H])c([H])c2c1c(N1C([H])([H])C([H])([H])C([H])([H])C1([H])[H])nn2[H]


 31 35  0  0  0  0  0  0  0  0999 V2000
    8.3372   47.3572  128.6634 C   0  0  0  0  0  0  0  0  0  0  0  0
    7.0519   48.0203  128.8236 C   0  0  0  0  0  0  0  0  0  0  0  0
    5.9581   47.5880  128.0944 C   0  0  0  0  0  0  0  0  0  0  0  0
    4.7017   48.1419  128.2308 C   0  0  0  0  0  0  0  0  0  0  0  0
    4.5260   49.1601  129.1227 C   0  0  0  0  0  0  0  0  0  0  0  0
    5.5706   49.6199  129.8627 C   0  0  0  0  0  0  0  0  0  0  0  0
    5.6308   50.6036  130.7627 N   0  0  0  0  0  0  0  0  0  0  0  0
    6.8624   50.6808  131.1845 N   0  0  0  0  0  0  0  0  0  0  0  0
    7.6459   49.7221  130.5498 C   0  0  0  0  0  0  0  0  0  0  0  0
    6.8277   49.0547  129.7162 C   0  0  0  0  0  0  0  0  0  0  0  0
    4.8349   51.2213  131.0890 H   0  0  0  0  0  0  0  0  0  0  0  0
    9.0237   49.5641  130.8410 N   0  0  0  0  0  0  0  0  0  0  0  0
    9.6638   49.4289  132.1085 C   0  0  0  0  0  0  0  0  0  0  0  0
   10.9185   48.6698  131.8425 C   0  0  0  0  0  0  0  0  0  0  0  0
   11.3381   49.2417  130.4844 C   0  0  0  0  0  0  0  0  0  0  0  0
   10.0374   49.5507  129.8119 C   0  0  0  0  0  0  0  0  0  0  0  0
    9.9341   45.7898  129.8555 C   0  0  0  0  0  0  0  0  0  0  0  0
   10.5582   45.5522  128.7599 O   0  0  0  0  0  0  0  0  0  0  0  0
    8.8269   46.6799  129.8615 N   0  0  0  0  0  0  0  0  0  0  0  0
    8.3363   46.8627  130.7526 H   0  0  0  0  0  0  0  0  0  0  0  0
   10.0343   45.2229  137.0652 F   0  0  0  0  0  0  0  0  0  0  0  0
   10.4482   44.7792  135.8385 C   0  0  0  0  0  0  0  0  0  0  0  0
   11.3171   43.7000  135.7570 C   0  0  0  0  0  0  0  0  0  0  0  0
   11.7373   43.2496  134.5220 C   0  0  0  0  0  0  0  0  0  0  0  0
   11.2899   43.8752  133.3961 C   0  0  0  0  0  0  0  0  0  0  0  0
   11.6772   43.4648  132.1953 N   0  0  0  0  0  0  0  0  0  0  0  0
   11.2675   44.0455  131.0528 C   0  0  0  0  0  0  0  0  0  0  0  0
   10.4020   45.1265  131.0383 C   0  0  0  0  0  0  0  0  0  0  0  0
    9.9802   45.5770  132.2818 C   0  0  0  0  0  0  0  0  0  0  0  0
   10.4188   44.9600  133.4288 C   0  0  0  0  0  0  0  0  0  0  0  0
   10.0136   45.3905  134.6838 C   0  0  0  0  0  0  0  0  0  0  0  0
 21 22  1  0  0  0
 22 23  2  0  0  0
 23 24  1  0  0  0
 24 25  2  0  0  0
 25 26  1  0  0  0
 26 27  2  0  0  0
 27 28  1  0  0  0
 28 29  2  0  0  0
 29 30  1  0  0  0
 30 31  2  0  0  0
 28 17  1  0  0  0
 17 18  2  0  0  0
 17 19  1  0  0  0
 19  1  1  0  0  0
  1  2  1  0  0  0
  2  3  2  0  0  0
  3  4  1  0  0  0
  4  5  2  0  0  0
  5  6  1  0  0  0
  6  7  1  0  0  0
  7  8  1  0  0  0
  8  9  2  0  0  0
  9 12  1  0  0  0
 12 13  1  0  0  0
 13 14  1  0  0  0
 14 15  1  0  0  0
 15 16  1  0  0  0
  9 10  1  0  0  0
 31 22  1  0  0  0
 10  2  1  0  0  0
 30 25  1  0  0  0
 10  6  2  0  0  0
 16 12  1  0  0  0
 19 20  1  0  0  0
  7 11  1  0  0  0
M  END
> <minimizedAffinity>
3.84131

> <CNNscore>
0.4474765956

> <CNNaffinity>
7.3449478149

> <CNN_VS>
3.2866921425

> <CNNaffinity_variance>
0.7010000348

$$$$
[H]c1nc2c([H])c([H])c(F)c([H])c2c([H])c1C(=O)N([H])C([H])([H])c1c([H])c([H])c([H])c2c1c(N1C([H])([H])C([H])([H])C([H])([H])C1([H])[H])nn2[H]


 31 35  0  0  0  0  0  0  0  0999 V2000
   10.7361   47.0081  130.1420 C   0  0  0  0  0  0  0  0  0  0  0  0
    9.5528   47.5660  129.5048 C   0  0  0  0  0  0  0  0  0  0  0  0
    9.3238   47.3399  128.1588 C   0  0  0  0  0  0  0  0  0  0  0  0
    8.2006   47.8009  127.5032 C   0  0  0  0  0  0  0  0  0  0  0  0
    7.2728   48.5105  128.2093 C   0  0  0  0  0  0  0  0  0  0  0  0
    7.4530   48.7586  129.5345 C   0  0  0  0  0  0  0  0  0  0  0  0
    6.6991   49.4385  130.4009 N   0  0  0  0  0  0  0  0  0  0  0  0
    7.3049   49.4177  131.5557 N   0  0  0  0  0  0  0  0  0  0  0  0
    8.4953   48.7039  131.4580 C   0  0  0  0  0  0  0  0  0  0  0  0
    8.5856   48.2898  130.1813 C   0  0  0  0  0  0  0  0  0  0  0  0
    5.7739   49.9157  130.2065 H   0  0  0  0  0  0  0  0  0  0  0  0
    9.3433   48.4998  132.5748 N   0  0  0  0  0  0  0  0  0  0  0  0
    9.2050   47.5720  133.6495 C   0  0  0  0  0  0  0  0  0  0  0  0
   10.5902   47.3176  134.1371 C   0  0  0  0  0  0  0  0  0  0  0  0
   11.2235   48.7052  133.9926 C   0  0  0  0  0  0  0  0  0  0  0  0
   10.5319   49.2890  132.8007 C   0  0  0  0  0  0  0  0  0  0  0  0
   10.0471   44.6876  130.8959 C   0  0  0  0  0  0  0  0  0  0  0  0
    9.9056   44.3071  129.6788 O   0  0  0  0  0  0  0  0  0  0  0  0
   10.4597   46.0172  131.1791 N   0  0  0  0  0  0  0  0  0  0  0  0
   10.5714   46.3076  132.1647 H   0  0  0  0  0  0  0  0  0  0  0  0
    5.3164   40.5251  134.4465 F   0  0  0  0  0  0  0  0  0  0  0  0
    6.5982   40.9699  134.2673 C   0  0  0  0  0  0  0  0  0  0  0  0
    7.6116   40.4887  135.0846 C   0  0  0  0  0  0  0  0  0  0  0  0
    8.9055   40.9348  134.9076 C   0  0  0  0  0  0  0  0  0  0  0  0
    9.1690   41.8457  133.9278 C   0  0  0  0  0  0  0  0  0  0  0  0
   10.4030   42.2931  133.7346 N   0  0  0  0  0  0  0  0  0  0  0  0
   10.7185   43.1915  132.7839 C   0  0  0  0  0  0  0  0  0  0  0  0
    9.7734   43.7252  131.9239 C   0  0  0  0  0  0  0  0  0  0  0  0
    8.4728   43.2742  132.1036 C   0  0  0  0  0  0  0  0  0  0  0  0
    8.1861   42.3558  133.0849 C   0  0  0  0  0  0  0  0  0  0  0  0
    6.8953   41.8892  133.2863 C   0  0  0  0  0  0  0  0  0  0  0  0
 21 22  1  0  0  0
 22 23  2  0  0  0
 23 24  1  0  0  0
 24 25  2  0  0  0
 25 26  1  0  0  0
 26 27  2  0  0  0
 27 28  1  0  0  0
 28 29  2  0  0  0
 29 30  1  0  0  0
 30 31  2  0  0  0
 28 17  1  0  0  0
 17 18  2  0  0  0
 17 19  1  0  0  0
 19  1  1  0  0  0
  1  2  1  0  0  0
  2  3  2  0  0  0
  3  4  1  0  0  0
  4  5  2  0  0  0
  5  6  1  0  0  0
  6  7  1  0  0  0
  7  8  1  0  0  0
  8  9  2  0  0  0
  9 12  1  0  0  0
 12 13  1  0  0  0
 13 14  1  0  0  0
 14 15  1  0  0  0
 15 16  1  0  0  0
  9 10  1  0  0  0
 31 22  1  0  0  0
 10  2  1  0  0  0
 30 25  1  0  0  0
 10  6  2  0  0  0
 16 12  1  0  0  0
 19 20  1  0  0  0
  7 11  1  0  0  0
M  END
> <minimizedAffinity>
13.37682

> <CNNscore>
0.4412377775

> <CNNaffinity>
7.5593652725

> <CNN_VS>
3.3354775906

> <CNNaffinity_variance>
2.0327754021

$$$$
[H]c1nc2c([H])c([H])c(F)c([H])c2c([H])c1C(=O)N([H])C([H])([H])c1c([H])c([H])c([H])c2c1c(N1C([H])([H])C([H])([H])C([H])([H])C1([H])[H])nn2[H]


 31 35  0  0  0  0  0  0  0  0999 V2000
    9.2905   45.0147  131.3992 C   0  0  0  0  0  0  0  0  0  0  0  0
   10.0600   44.8226  130.1792 C   0  0  0  0  0  0  0  0  0  0  0  0
    9.4863   45.1030  128.9514 C   0  0  0  0  0  0  0  0  0  0  0  0
   10.1731   44.9862  127.7604 C   0  0  0  0  0  0  0  0  0  0  0  0
   11.4750   44.5772  127.7904 C   0  0  0  0  0  0  0  0  0  0  0  0
   12.0832   44.2900  128.9726 C   0  0  0  0  0  0  0  0  0  0  0  0
   13.3198   43.8594  129.2309 N   0  0  0  0  0  0  0  0  0  0  0  0
   13.4250   43.7057  130.5217 N   0  0  0  0  0  0  0  0  0  0  0  0
   12.2265   44.0436  131.1425 C   0  0  0  0  0  0  0  0  0  0  0  0
   11.3820   44.4115  130.1620 C   0  0  0  0  0  0  0  0  0  0  0  0
   14.0906   43.6705  128.5297 H   0  0  0  0  0  0  0  0  0  0  0  0
   12.0690   43.9952  132.5499 N   0  0  0  0  0  0  0  0  0  0  0  0
   10.8680   43.9975  133.3196 C   0  0  0  0  0  0  0  0  0  0  0  0
   11.2089   43.3008  134.5922 C   0  0  0  0  0  0  0  0  0  0  0  0
   12.6395   43.7928  134.8349 C   0  0  0  0  0  0  0  0  0  0  0  0
   13.1939   43.9673  133.4558 C   0  0  0  0  0  0  0  0  0  0  0  0
    8.7248   47.4742  131.6414 C   0  0  0  0  0  0  0  0  0  0  0  0
    7.8566   47.3928  130.7003 O   0  0  0  0  0  0  0  0  0  0  0  0
    9.4612   46.3223  132.0276 N   0  0  0  0  0  0  0  0  0  0  0  0
   10.1551   46.4038  132.7892 H   0  0  0  0  0  0  0  0  0  0  0  0
    7.4124   51.9782  137.1463 F   0  0  0  0  0  0  0  0  0  0  0  0
    8.0099   51.7269  135.9409 C   0  0  0  0  0  0  0  0  0  0  0  0
    8.7757   52.7138  135.3362 C   0  0  0  0  0  0  0  0  0  0  0  0
    9.3797   52.4648  134.1206 C   0  0  0  0  0  0  0  0  0  0  0  0
    9.2135   51.2470  133.5301 C   0  0  0  0  0  0  0  0  0  0  0  0
    9.7815   50.9790  132.3614 N   0  0  0  0  0  0  0  0  0  0  0  0
    9.6500   49.7957  131.7346 C   0  0  0  0  0  0  0  0  0  0  0  0
    8.9056   48.7543  132.2631 C   0  0  0  0  0  0  0  0  0  0  0  0
    8.2999   49.0072  133.4863 C   0  0  0  0  0  0  0  0  0  0  0  0
    8.4554   50.2277  134.0986 C   0  0  0  0  0  0  0  0  0  0  0  0
    7.8605   50.5069  135.3203 C   0  0  0  0  0  0  0  0  0  0  0  0
 21 22  1  0  0  0
 22 23  2  0  0  0
 23 24  1  0  0  0
 24 25  2  0  0  0
 25 26  1  0  0  0
 26 27  2  0  0  0
 27 28  1  0  0  0
 28 29  2  0  0  0
 29 30  1  0  0  0
 30 31  2  0  0  0
 28 17  1  0  0  0
 17 18  2  0  0  0
 17 19  1  0  0  0
 19  1  1  0  0  0
  1  2  1  0  0  0
  2  3  2  0  0  0
  3  4  1  0  0  0
  4  5  2  0  0  0
  5  6  1  0  0  0
  6  7  1  0  0  0
  7  8  1  0  0  0
  8  9  2  0  0  0
  9 12  1  0  0  0
 12 13  1  0  0  0
 13 14  1  0  0  0
 14 15  1  0  0  0
 15 16  1  0  0  0
  9 10  1  0  0  0
 31 22  1  0  0  0
 10  2  1  0  0  0
 30 25  1  0  0  0
 10  6  2  0  0  0
 16 12  1  0  0  0
 19 20  1  0  0  0
  7 11  1  0  0  0
M  END
> <minimizedAffinity>
25.39641

> <CNNscore>
0.4240436256

> <CNNaffinity>
7.1686096191

> <CNN_VS>
3.0398032665

> <CNNaffinity_variance>
1.4893417358

$$$$
[H]c1nc2c([H])c([H])c(F)c([H])c2c([H])c1C(=O)N([H])C([H])([H])c1c([H])c([H])c([H])c2c1c(N1C([H])([H])C([H])([H])C([H])([H])C1([H])[H])nn2[H]


 31 35  0  0  0  0  0  0  0  0999 V2000
    6.2503   45.9381  130.3171 C   0  0  0  0  0  0  0  0  0  0  0  0
    6.2288   47.3044  129.8167 C   0  0  0  0  0  0  0  0  0  0  0  0
    5.1598   48.1307  130.1155 C   0  0  0  0  0  0  0  0  0  0  0  0
    5.0970   49.4486  129.7115 C   0  0  0  0  0  0  0  0  0  0  0  0
    6.1324   49.9632  128.9861 C   0  0  0  0  0  0  0  0  0  0  0  0
    7.2055   49.1906  128.6674 C   0  0  0  0  0  0  0  0  0  0  0  0
    8.3010   49.4752  127.9601 N   0  0  0  0  0  0  0  0  0  0  0  0
    9.0322   48.3965  127.9098 N   0  0  0  0  0  0  0  0  0  0  0  0
    8.4088   47.3637  128.6030 C   0  0  0  0  0  0  0  0  0  0  0  0
    7.2562   47.8682  129.0795 C   0  0  0  0  0  0  0  0  0  0  0  0
    8.5502   50.4020  127.5124 H   0  0  0  0  0  0  0  0  0  0  0  0
    8.9986   46.0818  128.7328 N   0  0  0  0  0  0  0  0  0  0  0  0
   10.3617   45.7414  128.9794 C   0  0  0  0  0  0  0  0  0  0  0  0
   10.3253   44.4108  129.6498 C   0  0  0  0  0  0  0  0  0  0  0  0
    9.1660   43.7309  128.9141 C   0  0  0  0  0  0  0  0  0  0  0  0
    8.2401   44.8608  128.5889 C   0  0  0  0  0  0  0  0  0  0  0  0
    8.2657   46.3737  131.7923 C   0  0  0  0  0  0  0  0  0  0  0  0
    7.8382   47.5507  132.0716 O   0  0  0  0  0  0  0  0  0  0  0  0
    7.5136   45.5331  130.9286 N   0  0  0  0  0  0  0  0  0  0  0  0
    7.8703   44.5868  130.7154 H   0  0  0  0  0  0  0  0  0  0  0  0
   11.8425   42.6497  136.8570 F   0  0  0  0  0  0  0  0  0  0  0  0
   11.8566   43.4785  135.7680 C   0  0  0  0  0  0  0  0  0  0  0  0
   13.0697   43.9161  135.2549 C   0  0  0  0  0  0  0  0  0  0  0  0
   13.0885   44.7523  134.1572 C   0  0  0  0  0  0  0  0  0  0  0  0
   11.9091   45.1371  133.5914 C   0  0  0  0  0  0  0  0  0  0  0  0
   11.8959   45.9408  132.5359 N   0  0  0  0  0  0  0  0  0  0  0  0
   10.7621   46.3517  131.9393 C   0  0  0  0  0  0  0  0  0  0  0  0
    9.5081   45.9659  132.3824 C   0  0  0  0  0  0  0  0  0  0  0  0
    9.4921   45.1242  133.4862 C   0  0  0  0  0  0  0  0  0  0  0  0
   10.6696   44.7240  134.0709 C   0  0  0  0  0  0  0  0  0  0  0  0
   10.6820   43.8842  135.1750 C   0  0  0  0  0  0  0  0  0  0  0  0
 21 22  1  0  0  0
 22 23  2  0  0  0
 23 24  1  0  0  0
 24 25  2  0  0  0
 25 26  1  0  0  0
 26 27  2  0  0  0
 27 28  1  0  0  0
 28 29  2  0  0  0
 29 30  1  0  0  0
 30 31  2  0  0  0
 28 17  1  0  0  0
 17 18  2  0  0  0
 17 19  1  0  0  0
 19  1  1  0  0  0
  1  2  1  0  0  0
  2  3  2  0  0  0
  3  4  1  0  0  0
  4  5  2  0  0  0
  5  6  1  0  0  0
  6  7  1  0  0  0
  7  8  1  0  0  0
  8  9  2  0  0  0
  9 12  1  0  0  0
 12 13  1  0  0  0
 13 14  1  0  0  0
 14 15  1  0  0  0
 15 16  1  0  0  0
  9 10  1  0  0  0
 31 22  1  0  0  0
 10  2  1  0  0  0
 30 25  1  0  0  0
 10  6  2  0  0  0
 16 12  1  0  0  0
 19 20  1  0  0  0
  7 11  1  0  0  0
M  END
> <minimizedAffinity>
7.62976

> <CNNscore>
0.4222835600

> <CNNaffinity>
7.3542418480

> <CNN_VS>
3.1055753231

> <CNNaffinity_variance>
0.7505979538

$$$$
[H]c1nc2c([H])c([H])c(F)c([H])c2c([H])c1C(=O)N([H])C([H])([H])c1c([H])c([H])c([H])c2c1c(N1C([H])([H])C([H])([H])C([H])([H])C1([H])[H])nn2[H]


 31 35  0  0  0  0  0  0  0  0999 V2000
    9.1318   44.5329  131.6276 C   0  0  0  0  0  0  0  0  0  0  0  0
    9.7807   44.6186  132.9272 C   0  0  0  0  0  0  0  0  0  0  0  0
    9.0140   44.6666  134.0783 C   0  0  0  0  0  0  0  0  0  0  0  0
    9.5644   44.7029  135.3430 C   0  0  0  0  0  0  0  0  0  0  0  0
   10.9235   44.6907  135.4684 C   0  0  0  0  0  0  0  0  0  0  0  0
   11.7198   44.6439  134.3667 C   0  0  0  0  0  0  0  0  0  0  0  0
   13.0499   44.6461  134.2558 N   0  0  0  0  0  0  0  0  0  0  0  0
   13.3422   44.6136  132.9853 N   0  0  0  0  0  0  0  0  0  0  0  0
   12.1760   44.5881  132.2270 C   0  0  0  0  0  0  0  0  0  0  0  0
   11.1542   44.6076  133.1018 C   0  0  0  0  0  0  0  0  0  0  0  0
   13.7571   44.6698  135.0437 H   0  0  0  0  0  0  0  0  0  0  0  0
   12.2006   44.5226  130.8117 N   0  0  0  0  0  0  0  0  0  0  0  0
   12.3578   43.3831  129.9681 C   0  0  0  0  0  0  0  0  0  0  0  0
   11.6812   43.7381  128.6884 C   0  0  0  0  0  0  0  0  0  0  0  0
   12.0323   45.2241  128.5606 C   0  0  0  0  0  0  0  0  0  0  0  0
   12.0931   45.6981  129.9789 C   0  0  0  0  0  0  0  0  0  0  0  0
    8.2829   46.9171  131.4775 C   0  0  0  0  0  0  0  0  0  0  0  0
    7.7393   46.8230  132.6358 O   0  0  0  0  0  0  0  0  0  0  0  0
    8.9874   45.8100  130.9333 N   0  0  0  0  0  0  0  0  0  0  0  0
    9.4218   45.9026  130.0000 H   0  0  0  0  0  0  0  0  0  0  0  0
    5.1026   53.3817  130.8390 F   0  0  0  0  0  0  0  0  0  0  0  0
    6.0052   52.4581  130.3859 C   0  0  0  0  0  0  0  0  0  0  0  0
    6.7670   52.7389  129.2601 C   0  0  0  0  0  0  0  0  0  0  0  0
    7.6781   51.8104  128.7995 C   0  0  0  0  0  0  0  0  0  0  0  0
    7.8160   50.6260  129.4610 C   0  0  0  0  0  0  0  0  0  0  0  0
    8.6832   49.7140  129.0410 N   0  0  0  0  0  0  0  0  0  0  0  0
    8.8591   48.5296  129.6549 C   0  0  0  0  0  0  0  0  0  0  0  0
    8.1436   48.1646  130.7830 C   0  0  0  0  0  0  0  0  0  0  0  0
    7.2284   49.1008  131.2447 C   0  0  0  0  0  0  0  0  0  0  0  0
    7.0746   50.3009  130.5930 C   0  0  0  0  0  0  0  0  0  0  0  0
    6.1669   51.2534  131.0327 C   0  0  0  0  0  0  0  0  0  0  0  0
 21 22  1  0  0  0
 22 23  2  0  0  0
 23 24  1  0  0  0
 24 25  2  0  0  0
 25 26  1  0  0  0
 26 27  2  0  0  0
 27 28  1  0  0  0
 28 29  2  0  0  0
 29 30  1  0  0  0
 30 31  2  0  0  0
 28 17  1  0  0  0
 17 18  2  0  0  0
 17 19  1  0  0  0
 19  1  1  0  0  0
  1  2  1  0  0  0
  2  3  2  0  0  0
  3  4  1  0  0  0
  4  5  2  0  0  0
  5  6  1  0  0  0
  6  7  1  0  0  0
  7  8  1  0  0  0
  8  9  2  0  0  0
  9 12  1  0  0  0
 12 13  1  0  0  0
 13 14  1  0  0  0
 14 15  1  0  0  0
 15 16  1  0  0  0
  9 10  1  0  0  0
 31 22  1  0  0  0
 10  2  1  0  0  0
 30 25  1  0  0  0
 10  6  2  0  0  0
 16 12  1  0  0  0
 19 20  1  0  0  0
  7 11  1  0  0  0
M  END
> <minimizedAffinity>
18.79128

> <CNNscore>
0.4174109101

> <CNNaffinity>
7.2942895889

> <CNN_VS>
3.0447161198

> <CNNaffinity_variance>
1.6912679672

$$$$
[H]c1nc2c([H])c([H])c(F)c([H])c2c([H])c1C(=O)N([H])C([H])([H])c1c([H])c([H])c([H])c2c1c(N1C([H])([H])C([H])([H])C([H])([H])C1([H])[H])nn2[H]


 31 35  0  0  0  0  0  0  0  0999 V2000
    7.8347   47.0038  128.5912 C   0  0  0  0  0  0  0  0  0  0  0  0
    6.7193   47.9145  128.8010 C   0  0  0  0  0  0  0  0  0  0  0  0
    5.5254   47.7070  128.1328 C   0  0  0  0  0  0  0  0  0  0  0  0
    4.4150   48.5046  128.3194 C   0  0  0  0  0  0  0  0  0  0  0  0
    4.4935   49.5439  129.2007 C   0  0  0  0  0  0  0  0  0  0  0  0
    5.6453   49.7884  129.8817 C   0  0  0  0  0  0  0  0  0  0  0  0
    5.9479   50.7464  130.7604 N   0  0  0  0  0  0  0  0  0  0  0  0
    7.1895   50.5759  131.1214 N   0  0  0  0  0  0  0  0  0  0  0  0
    7.7306   49.4738  130.4668 C   0  0  0  0  0  0  0  0  0  0  0  0
    6.7535   48.9795  129.6851 C   0  0  0  0  0  0  0  0  0  0  0  0
    5.3105   51.5147  131.1135 H   0  0  0  0  0  0  0  0  0  0  0  0
    9.0610   49.0425  130.6944 N   0  0  0  0  0  0  0  0  0  0  0  0
   10.1819   49.0852  129.8131 C   0  0  0  0  0  0  0  0  0  0  0  0
   11.3812   49.1440  130.6961 C   0  0  0  0  0  0  0  0  0  0  0  0
   10.9564   48.2271  131.8479 C   0  0  0  0  0  0  0  0  0  0  0  0
    9.4757   48.4276  131.9340 C   0  0  0  0  0  0  0  0  0  0  0  0
    8.5867   45.0576  130.0314 C   0  0  0  0  0  0  0  0  0  0  0  0
    8.2414   44.2197  129.1232 O   0  0  0  0  0  0  0  0  0  0  0  0
    8.4080   46.4503  129.8154 N   0  0  0  0  0  0  0  0  0  0  0  0
    8.6934   47.1124  130.5559 H   0  0  0  0  0  0  0  0  0  0  0  0
   13.8888   44.9896  134.9503 F   0  0  0  0  0  0  0  0  0  0  0  0
   12.6929   44.5051  134.4941 C   0  0  0  0  0  0  0  0  0  0  0  0
   12.0429   43.5048  135.2035 C   0  0  0  0  0  0  0  0  0  0  0  0
   10.8370   43.0130  134.7470 C   0  0  0  0  0  0  0  0  0  0  0  0
   10.3008   43.5201  133.6004 C   0  0  0  0  0  0  0  0  0  0  0  0
    9.1433   43.0665  133.1370 N   0  0  0  0  0  0  0  0  0  0  0  0
    8.5699   43.5304  132.0116 C   0  0  0  0  0  0  0  0  0  0  0  0
    9.1461   44.5261  131.2408 C   0  0  0  0  0  0  0  0  0  0  0  0
   10.3586   45.0196  131.7027 C   0  0  0  0  0  0  0  0  0  0  0  0
   10.9159   44.5226  132.8565 C   0  0  0  0  0  0  0  0  0  0  0  0
   12.1265   44.9973  133.3397 C   0  0  0  0  0  0  0  0  0  0  0  0
 21 22  1  0  0  0
 22 23  2  0  0  0
 23 24  1  0  0  0
 24 25  2  0  0  0
 25 26  1  0  0  0
 26 27  2  0  0  0
 27 28  1  0  0  0
 28 29  2  0  0  0
 29 30  1  0  0  0
 30 31  2  0  0  0
 28 17  1  0  0  0
 17 18  2  0  0  0
 17 19  1  0  0  0
 19  1  1  0  0  0
  1  2  1  0  0  0
  2  3  2  0  0  0
  3  4  1  0  0  0
  4  5  2  0  0  0
  5  6  1  0  0  0
  6  7  1  0  0  0
  7  8  1  0  0  0
  8  9  2  0  0  0
  9 12  1  0  0  0
 12 13  1  0  0  0
 13 14  1  0  0  0
 14 15  1  0  0  0
 15 16  1  0  0  0
  9 10  1  0  0  0
 31 22  1  0  0  0
 10  2  1  0  0  0
 30 25  1  0  0  0
 10  6  2  0  0  0
 16 12  1  0  0  0
 19 20  1  0  0  0
  7 11  1  0  0  0
M  END
> <minimizedAffinity>
4.47392

> <CNNscore>
0.3944819272

> <CNNaffinity>
7.3043885231

> <CNN_VS>
2.8814492226

> <CNNaffinity_variance>
0.5826261044

$$$$
[H]c1nc2c([H])c([H])c(F)c([H])c2c([H])c1C(=O)N([H])C([H])([H])c1c([H])c([H])c([H])c2c1c(N1C([H])([H])C([H])([H])C([H])([H])C1([H])[H])nn2[H]


 31 35  0  0  0  0  0  0  0  0999 V2000
    8.9320   45.0859  133.7544 C   0  0  0  0  0  0  0  0  0  0  0  0
   10.3808   45.0488  133.8849 C   0  0  0  0  0  0  0  0  0  0  0  0
   11.0292   46.0091  134.6415 C   0  0  0  0  0  0  0  0  0  0  0  0
   12.3942   46.0066  134.8435 C   0  0  0  0  0  0  0  0  0  0  0  0
   13.1405   45.0155  134.2745 C   0  0  0  0  0  0  0  0  0  0  0  0
   12.5491   44.0488  133.5222 C   0  0  0  0  0  0  0  0  0  0  0  0
   13.0783   43.0150  132.8645 N   0  0  0  0  0  0  0  0  0  0  0  0
   12.1050   42.3837  132.2685 N   0  0  0  0  0  0  0  0  0  0  0  0
   10.8930   43.0124  132.5361 C   0  0  0  0  0  0  0  0  0  0  0  0
   11.1769   44.0628  133.3271 C   0  0  0  0  0  0  0  0  0  0  0  0
   14.0999   42.7399  132.8215 H   0  0  0  0  0  0  0  0  0  0  0  0
    9.6631   42.5187  132.0343 N   0  0  0  0  0  0  0  0  0  0  0  0
    8.4630   42.2121  132.7418 C   0  0  0  0  0  0  0  0  0  0  0  0
    7.3629   42.3736  131.7494 C   0  0  0  0  0  0  0  0  0  0  0  0
    8.0226   41.8392  130.4740 C   0  0  0  0  0  0  0  0  0  0  0  0
    9.4635   42.2091  130.6375 C   0  0  0  0  0  0  0  0  0  0  0  0
    8.8110   46.0903  131.4296 C   0  0  0  0  0  0  0  0  0  0  0  0
    9.6288   45.2101  130.9797 O   0  0  0  0  0  0  0  0  0  0  0  0
    8.4314   46.0706  132.7985 N   0  0  0  0  0  0  0  0  0  0  0  0
    7.7698   46.7851  133.1450 H   0  0  0  0  0  0  0  0  0  0  0  0
    6.8887   52.9110  129.9823 F   0  0  0  0  0  0  0  0  0  0  0  0
    7.0429   51.6140  129.5736 C   0  0  0  0  0  0  0  0  0  0  0  0
    6.7138   51.2614  128.2722 C   0  0  0  0  0  0  0  0  0  0  0  0
    6.8675   49.9546  127.8560 C   0  0  0  0  0  0  0  0  0  0  0  0
    7.3424   49.0261  128.7344 C   0  0  0  0  0  0  0  0  0  0  0  0
    7.4999   47.7622  128.3630 N   0  0  0  0  0  0  0  0  0  0  0  0
    7.9635   46.8061  129.1884 C   0  0  0  0  0  0  0  0  0  0  0  0
    8.3162   47.0663  130.5020 C   0  0  0  0  0  0  0  0  0  0  0  0
    8.1615   48.3817  130.9177 C   0  0  0  0  0  0  0  0  0  0  0  0
    7.6851   49.3331  130.0479 C   0  0  0  0  0  0  0  0  0  0  0  0
    7.5203   50.6542  130.4377 C   0  0  0  0  0  0  0  0  0  0  0  0
 21 22  1  0  0  0
 22 23  2  0  0  0
 23 24  1  0  0  0
 24 25  2  0  0  0
 25 26  1  0  0  0
 26 27  2  0  0  0
 27 28  1  0  0  0
 28 29  2  0  0  0
 29 30  1  0  0  0
 30 31  2  0  0  0
 28 17  1  0  0  0
 17 18  2  0  0  0
 17 19  1  0  0  0
 19  1  1  0  0  0
  1  2  1  0  0  0
  2  3  2  0  0  0
  3  4  1  0  0  0
  4  5  2  0  0  0
  5  6  1  0  0  0
  6  7  1  0  0  0
  7  8  1  0  0  0
  8  9  2  0  0  0
  9 12  1  0  0  0
 12 13  1  0  0  0
 13 14  1  0  0  0
 14 15  1  0  0  0
 15 16  1  0  0  0
  9 10  1  0  0  0
 31 22  1  0  0  0
 10  2  1  0  0  0
 30 25  1  0  0  0
 10  6  2  0  0  0
 16 12  1  0  0  0
 19 20  1  0  0  0
  7 11  1  0  0  0
M  END
> <minimizedAffinity>
3.89856

> <CNNscore>
0.3902662098

> <CNNaffinity>
7.5141839981

> <CNN_VS>
2.9325320721

> <CNNaffinity_variance>
1.0963594913

$$$$
[H]c1nc2c([H])c([H])c(F)c([H])c2c([H])c1C(=O)N([H])C([H])([H])c1c([H])c([H])c([H])c2c1c(N1C([H])([H])C([H])([H])C([H])([H])C1([H])[H])nn2[H]


 31 35  0  0  0  0  0  0  0  0999 V2000
   10.4785   45.3100  131.4537 C   0  0  0  0  0  0  0  0  0  0  0  0
   10.9201   45.1021  130.0828 C   0  0  0  0  0  0  0  0  0  0  0  0
   11.5343   43.9133  129.7297 C   0  0  0  0  0  0  0  0  0  0  0  0
   11.9364   43.6332  128.4398 C   0  0  0  0  0  0  0  0  0  0  0  0
   11.7202   44.5661  127.4672 C   0  0  0  0  0  0  0  0  0  0  0  0
   11.1200   45.7499  127.7648 C   0  0  0  0  0  0  0  0  0  0  0  0
   10.8344   46.7979  126.9892 N   0  0  0  0  0  0  0  0  0  0  0  0
   10.2776   47.7073  127.7402 N   0  0  0  0  0  0  0  0  0  0  0  0
   10.1880   47.2541  129.0526 C   0  0  0  0  0  0  0  0  0  0  0  0
   10.7208   46.0189  129.0646 C   0  0  0  0  0  0  0  0  0  0  0  0
   11.0183   46.8938  125.9508 H   0  0  0  0  0  0  0  0  0  0  0  0
    9.5970   48.0330  130.0783 N   0  0  0  0  0  0  0  0  0  0  0  0
    8.2544   48.5020  130.1890 C   0  0  0  0  0  0  0  0  0  0  0  0
    8.0085   48.6657  131.6498 C   0  0  0  0  0  0  0  0  0  0  0  0
    9.3684   49.1821  132.1313 C   0  0  0  0  0  0  0  0  0  0  0  0
   10.3462   48.5154  131.2153 C   0  0  0  0  0  0  0  0  0  0  0  0
    9.5120   43.4145  132.8323 C   0  0  0  0  0  0  0  0  0  0  0  0
   10.6528   43.1955  133.3769 O   0  0  0  0  0  0  0  0  0  0  0  0
    9.3721   44.4537  131.8738 N   0  0  0  0  0  0  0  0  0  0  0  0
    8.4458   44.6190  131.4461 H   0  0  0  0  0  0  0  0  0  0  0  0
    5.9301   39.8919  138.0356 F   0  0  0  0  0  0  0  0  0  0  0  0
    6.0605   40.2423  136.7190 C   0  0  0  0  0  0  0  0  0  0  0  0
    5.1382   39.7784  135.7914 C   0  0  0  0  0  0  0  0  0  0  0  0
    5.2660   40.1289  134.4628 C   0  0  0  0  0  0  0  0  0  0  0  0
    6.3017   40.9294  134.0807 C   0  0  0  0  0  0  0  0  0  0  0  0
    6.4506   41.2823  132.8104 N   0  0  0  0  0  0  0  0  0  0  0  0
    7.4536   42.0686  132.3790 C   0  0  0  0  0  0  0  0  0  0  0  0
    8.4184   42.5767  133.2325 C   0  0  0  0  0  0  0  0  0  0  0  0
    8.2869   42.2232  134.5685 C   0  0  0  0  0  0  0  0  0  0  0  0
    7.2499   41.4180  134.9746 C   0  0  0  0  0  0  0  0  0  0  0  0
    7.0957   41.0491  136.3030 C   0  0  0  0  0  0  0  0  0  0  0  0
 21 22  1  0  0  0
 22 23  2  0  0  0
 23 24  1  0  0  0
 24 25  2  0  0  0
 25 26  1  0  0  0
 26 27  2  0  0  0
 27 28  1  0  0  0
 28 29  2  0  0  0
 29 30  1  0  0  0
 30 31  2  0  0  0
 28 17  1  0  0  0
 17 18  2  0  0  0
 17 19  1  0  0  0
 19  1  1  0  0  0
  1  2  1  0  0  0
  2  3  2  0  0  0
  3  4  1  0  0  0
  4  5  2  0  0  0
  5  6  1  0  0  0
  6  7  1  0  0  0
  7  8  1  0  0  0
  8  9  2  0  0  0
  9 12  1  0  0  0
 12 13  1  0  0  0
 13 14  1  0  0  0
 14 15  1  0  0  0
 15 16  1  0  0  0
  9 10  1  0  0  0
 31 22  1  0  0  0
 10  2  1  0  0  0
 30 25  1  0  0  0
 10  6  2  0  0  0
 16 12  1  0  0  0
 19 20  1  0  0  0
  7 11  1  0  0  0
M  END
> <minimizedAffinity>
42.03273

> <CNNscore>
0.3852699995

> <CNNaffinity>
6.8914670944

> <CNN_VS>
2.6550755501

> <CNNaffinity_variance>
1.1772696972

$$$$
[H]OC([H])([H])[C@@]1([H])O[C@]([H])(C([H])([H])O[H])[C@]([H])(O[H])[C@]1([H])O[H]


 15 15  0  0  0  0  0  0  0  0999 V2000
    9.1625   45.3908  132.7419 C   0  0  0  0  0  0  0  0  0  0  0  0
    8.2142   45.1446  131.7739 O   0  0  0  0  0  0  0  0  0  0  0  0
    9.8864   44.0992  133.1475 C   0  0  0  0  0  0  0  0  0  0  0  0
    9.7925   43.1522  132.1346 O   0  0  0  0  0  0  0  0  0  0  0  0
   11.2741   44.5868  133.3760 C   0  0  0  0  0  0  0  0  0  0  0  0
   11.2881   45.9632  133.2160 O   0  0  0  0  0  0  0  0  0  0  0  0
   10.3363   46.1965  132.2267 C   0  0  0  0  0  0  0  0  0  0  0  0
    7.6218   45.9384  131.7338 H   0  0  0  0  0  0  0  0  0  0  0  0
    8.9526   42.6559  132.2283 H   0  0  0  0  0  0  0  0  0  0  0  0
   12.2840   44.0088  132.4134 C   0  0  0  0  0  0  0  0  0  0  0  0
   12.7102   42.7501  132.7725 O   0  0  0  0  0  0  0  0  0  0  0  0
   13.7068   42.6711  132.8038 H   0  0  0  0  0  0  0  0  0  0  0  0
   10.0056   47.6490  132.0552 C   0  0  0  0  0  0  0  0  0  0  0  0
    8.8778   47.7173  131.2242 O   0  0  0  0  0  0  0  0  0  0  0  0
    8.1165   47.2816  131.6885 H   0  0  0  0  0  0  0  0  0  0  0  0
  1  2  1  0  0  0
  1  3  1  0  0  0
  3  4  1  0  0  0
  3  5  1  0  0  0
  5 10  1  0  0  0
 10 11  1  0  0  0
  5  6  1  0  0  0
  6  7  1  0  0  0
  7 13  1  0  0  0
 13 14  1  0  0  0
  7  1  1  0  0  0
  2  8  1  0  0  0
  4  9  1  0  0  0
 11 12  1  0  0  0
 14 15  1  0  0  0
M  END
> <minimizedAffinity>
-4.37380

> <CNNscore>
0.6412970424

> <CNNaffinity>
3.9448769093

> <CNN_VS>
2.5298378468

> <CNNaffinity_variance>
0.1923052818

$$$$
[H]OC([H])([H])[C@@]1([H])O[C@]([H])(C([H])([H])O[H])[C@]([H])(O[H])[C@]1([H])O[H]


 15 15  0  0  0  0  0  0  0  0999 V2000
   10.1779   42.4611  132.2718 C   0  0  0  0  0  0  0  0  0  0  0  0
   11.4080   41.8653  132.1015 O   0  0  0  0  0  0  0  0  0  0  0  0
   10.1210   43.2441  133.5909 C   0  0  0  0  0  0  0  0  0  0  0  0
   11.4022   43.5835  134.0091 O   0  0  0  0  0  0  0  0  0  0  0  0
    9.2906   44.4198  133.2117 C   0  0  0  0  0  0  0  0  0  0  0  0
    8.8695   44.2560  131.9016 O   0  0  0  0  0  0  0  0  0  0  0  0
    9.9260   43.5859  131.2901 C   0  0  0  0  0  0  0  0  0  0  0  0
   11.3098   41.1871  131.3853 H   0  0  0  0  0  0  0  0  0  0  0  0
   11.7865   42.8408  134.5202 H   0  0  0  0  0  0  0  0  0  0  0  0
   10.0319   45.7333  133.2881 C   0  0  0  0  0  0  0  0  0  0  0  0
   10.0165   46.2871  134.5483 O   0  0  0  0  0  0  0  0  0  0  0  0
    9.7086   47.2387  134.5511 H   0  0  0  0  0  0  0  0  0  0  0  0
    9.5930   43.0861  129.9161 C   0  0  0  0  0  0  0  0  0  0  0  0
    8.3361   42.4689  129.9979 O   0  0  0  0  0  0  0  0  0  0  0  0
    7.6632   43.1546  130.2468 H   0  0  0  0  0  0  0  0  0  0  0  0
  1  2  1  0  0  0
  1  3  1  0  0  0
  3  4  1  0  0  0
  3  5  1  0  0  0
  5 10  1  0  0  0
 10 11  1  0  0  0
  5  6  1  0  0  0
  6  7  1  0  0  0
  7 13  1  0  0  0
 13 14  1  0  0  0
  7  1  1  0  0  0
  2  8  1  0  0  0
  4  9  1  0  0  0
 11 12  1  0  0  0
 14 15  1  0  0  0
M  END
> <minimizedAffinity>
-4.68303

> <CNNscore>
0.6336713433

> <CNNaffinity>
3.9335331917

> <CNN_VS>
2.4925673008

> <CNNaffinity_variance>
0.1671333015

$$$$
[H]OC([H])([H])[C@@]1([H])O[C@]([H])(C([H])([H])O[H])[C@]([H])(O[H])[C@]1([H])O[H]


 15 15  0  0  0  0  0  0  0  0999 V2000
    9.8056   45.4196  132.9458 C   0  0  0  0  0  0  0  0  0  0  0  0
   10.0453   46.6920  132.4765 O   0  0  0  0  0  0  0  0  0  0  0  0
    8.6612   44.7512  132.1710 C   0  0  0  0  0  0  0  0  0  0  0  0
    8.5107   45.3427  130.9224 O   0  0  0  0  0  0  0  0  0  0  0  0
    9.1228   43.3377  132.1051 C   0  0  0  0  0  0  0  0  0  0  0  0
   10.3014   43.2262  132.8256 O   0  0  0  0  0  0  0  0  0  0  0  0
   10.9296   44.4542  132.6344 C   0  0  0  0  0  0  0  0  0  0  0  0
   10.6003   47.1560  133.1543 H   0  0  0  0  0  0  0  0  0  0  0  0
    7.9343   46.1314  131.0019 H   0  0  0  0  0  0  0  0  0  0  0  0
    9.4035   42.8583  130.7009 C   0  0  0  0  0  0  0  0  0  0  0  0
    8.2662   42.4783  130.0247 O   0  0  0  0  0  0  0  0  0  0  0  0
    8.3392   41.5651  129.6234 H   0  0  0  0  0  0  0  0  0  0  0  0
   12.1212   44.6533  133.5228 C   0  0  0  0  0  0  0  0  0  0  0  0
   12.7860   43.4206  133.5992 O   0  0  0  0  0  0  0  0  0  0  0  0
   13.1145   43.1823  132.6935 H   0  0  0  0  0  0  0  0  0  0  0  0
  1  2  1  0  0  0
  1  3  1  0  0  0
  3  4  1  0  0  0
  3  5  1  0  0  0
  5 10  1  0  0  0
 10 11  1  0  0  0
  5  6  1  0  0  0
  6  7  1  0  0  0
  7 13  1  0  0  0
 13 14  1  0  0  0
  7  1  1  0  0  0
  2  8  1  0  0  0
  4  9  1  0  0  0
 11 12  1  0  0  0
 14 15  1  0  0  0
M  END
> <minimizedAffinity>
-4.77703

> <CNNscore>
0.6306328773

> <CNNaffinity>
3.8290188313

> <CNN_VS>
2.4147052765

> <CNNaffinity_variance>
0.0580153465

$$$$
[H]OC([H])([H])[C@@]1([H])O[C@]([H])(C([H])([H])O[H])[C@]([H])(O[H])[C@]1([H])O[H]


 15 15  0  0  0  0  0  0  0  0999 V2000
    9.5667   43.1219  130.2735 C   0  0  0  0  0  0  0  0  0  0  0  0
    8.3894   42.4117  130.1923 O   0  0  0  0  0  0  0  0  0  0  0  0
    9.4986   44.4028  129.4302 C   0  0  0  0  0  0  0  0  0  0  0  0
    8.1766   44.7828  129.2315 O   0  0  0  0  0  0  0  0  0  0  0  0
   10.2708   45.3605  130.2681 C   0  0  0  0  0  0  0  0  0  0  0  0
   10.7744   44.6783  131.3642 O   0  0  0  0  0  0  0  0  0  0  0  0
    9.7997   43.7238  131.6431 C   0  0  0  0  0  0  0  0  0  0  0  0
    8.5715   41.5000  130.5364 H   0  0  0  0  0  0  0  0  0  0  0  0
    7.8133   44.3077  128.4551 H   0  0  0  0  0  0  0  0  0  0  0  0
    9.4426   46.5097  130.7916 C   0  0  0  0  0  0  0  0  0  0  0  0
   10.1710   47.3939  131.5548 O   0  0  0  0  0  0  0  0  0  0  0  0
    9.7524   47.5761  132.4447 H   0  0  0  0  0  0  0  0  0  0  0  0
   10.2410   42.7051  132.6512 C   0  0  0  0  0  0  0  0  0  0  0  0
   11.1317   41.8409  131.9977 O   0  0  0  0  0  0  0  0  0  0  0  0
   11.9289   42.3615  131.7178 H   0  0  0  0  0  0  0  0  0  0  0  0
  1  2  1  0  0  0
  1  3  1  0  0  0
  3  4  1  0  0  0
  3  5  1  0  0  0
  5 10  1  0  0  0
 10 11  1  0  0  0
  5  6  1  0  0  0
  6  7  1  0  0  0
  7 13  1  0  0  0
 13 14  1  0  0  0
  7  1  1  0  0  0
  2  8  1  0  0  0
  4  9  1  0  0  0
 11 12  1  0  0  0
 14 15  1  0  0  0
M  END
> <minimizedAffinity>
-4.68205

> <CNNscore>
0.6262580156

> <CNNaffinity>
3.8641734123

> <CNN_VS>
2.4199695587

> <CNNaffinity_variance>
0.1964967549

$$$$
[H]OC([H])([H])[C@@]1([H])O[C@]([H])(C([H])([H])O[H])[C@]([H])(O[H])[C@]1([H])O[H]


 15 15  0  0  0  0  0  0  0  0999 V2000
   12.0571   44.0615  132.3785 C   0  0  0  0  0  0  0  0  0  0  0  0
   12.6058   43.4772  133.4985 O   0  0  0  0  0  0  0  0  0  0  0  0
   11.5220   42.9999  131.4072 C   0  0  0  0  0  0  0  0  0  0  0  0
   11.2551   41.8151  132.0829 O   0  0  0  0  0  0  0  0  0  0  0  0
   10.3024   43.6642  130.8716 C   0  0  0  0  0  0  0  0  0  0  0  0
   10.2325   44.9445  131.3975 O   0  0  0  0  0  0  0  0  0  0  0  0
   10.7768   44.8143  132.6727 C   0  0  0  0  0  0  0  0  0  0  0  0
   13.1461   44.1703  133.9572 H   0  0  0  0  0  0  0  0  0  0  0  0
   12.0747   41.2810  132.1421 H   0  0  0  0  0  0  0  0  0  0  0  0
    9.0193   42.9552  131.2342 C   0  0  0  0  0  0  0  0  0  0  0  0
    8.3197   42.5131  130.1342 O   0  0  0  0  0  0  0  0  0  0  0  0
    7.3631   42.8052  130.1385 H   0  0  0  0  0  0  0  0  0  0  0  0
   11.0257   46.1306  133.3464 C   0  0  0  0  0  0  0  0  0  0  0  0
   10.7108   47.1328  132.4170 O   0  0  0  0  0  0  0  0  0  0  0  0
    9.7430   47.0743  132.2052 H   0  0  0  0  0  0  0  0  0  0  0  0
  1  2  1  0  0  0
  1  3  1  0  0  0
  3  4  1  0  0  0
  3  5  1  0  0  0
  5 10  1  0  0  0
 10 11  1  0  0  0
  5  6  1  0  0  0
  6  7  1  0  0  0
  7 13  1  0  0  0
 13 14  1  0  0  0
  7  1  1  0  0  0
  2  8  1  0  0  0
  4  9  1  0  0  0
 11 12  1  0  0  0
 14 15  1  0  0  0
M  END
> <minimizedAffinity>
-5.05257

> <CNNscore>
0.6145116091

> <CNNaffinity>
3.9585247040

> <CNN_VS>
2.4325594902

> <CNNaffinity_variance>
0.3405925632

$$$$
[H]OC([H])([H])[C@@]1([H])O[C@]([H])(C([H])([H])O[H])[C@]([H])(O[H])[C@]1([H])O[H]


 15 15  0  0  0  0  0  0  0  0999 V2000
    8.5911   45.0621  131.7685 C   0  0  0  0  0  0  0  0  0  0  0  0
    9.3319   45.9656  132.4976 O   0  0  0  0  0  0  0  0  0  0  0  0
    8.4954   45.4862  130.2962 C   0  0  0  0  0  0  0  0  0  0  0  0
    9.5478   46.3317  129.9658 O   0  0  0  0  0  0  0  0  0  0  0  0
    8.5480   44.1733  129.5969 C   0  0  0  0  0  0  0  0  0  0  0  0
    8.5691   43.1681  130.5506 O   0  0  0  0  0  0  0  0  0  0  0  0
    9.2820   43.7242  131.6096 C   0  0  0  0  0  0  0  0  0  0  0  0
    9.1542   45.7863  133.4563 H   0  0  0  0  0  0  0  0  0  0  0  0
    9.3115   47.2539  130.1987 H   0  0  0  0  0  0  0  0  0  0  0  0
    9.7715   43.9995  128.7289 C   0  0  0  0  0  0  0  0  0  0  0  0
    9.7051   42.8858  127.9225 O   0  0  0  0  0  0  0  0  0  0  0  0
   10.5125   42.3006  128.0004 H   0  0  0  0  0  0  0  0  0  0  0  0
    9.2265   42.8966  132.8589 C   0  0  0  0  0  0  0  0  0  0  0  0
   10.3537   43.2321  133.6232 O   0  0  0  0  0  0  0  0  0  0  0  0
   10.2855   44.1872  133.8842 H   0  0  0  0  0  0  0  0  0  0  0  0
  1  2  1  0  0  0
  1  3  1  0  0  0
  3  4  1  0  0  0
  3  5  1  0  0  0
  5 10  1  0  0  0
 10 11  1  0  0  0
  5  6  1  0  0  0
  6  7  1  0  0  0
  7 13  1  0  0  0
 13 14  1  0  0  0
  7  1  1  0  0  0
  2  8  1  0  0  0
  4  9  1  0  0  0
 11 12  1  0  0  0
 14 15  1  0  0  0
M  END
> <minimizedAffinity>
-4.45360

> <CNNscore>
0.6051468849

> <CNNaffinity>
3.9217171669

> <CNN_VS>
2.3732149601

> <CNNaffinity_variance>
0.1462975889

$$$$
[H]OC([H])([H])[C@@]1([H])O[C@]([H])(C([H])([H])O[H])[C@]([H])(O[H])[C@]1([H])O[H]


 15 15  0  0  0  0  0  0  0  0999 V2000
   10.4585   43.5697  132.0182 C   0  0  0  0  0  0  0  0  0  0  0  0
    9.6720   42.7119  132.7548 O   0  0  0  0  0  0  0  0  0  0  0  0
    9.5984   44.5336  131.1889 C   0  0  0  0  0  0  0  0  0  0  0  0
    8.3317   44.6562  131.7477 O   0  0  0  0  0  0  0  0  0  0  0  0
   10.3980   45.7874  131.2530 C   0  0  0  0  0  0  0  0  0  0  0  0
   11.5754   45.5233  131.9346 O   0  0  0  0  0  0  0  0  0  0  0  0
   11.2108   44.5646  132.8764 C   0  0  0  0  0  0  0  0  0  0  0  0
   10.2538   41.9708  133.0630 H   0  0  0  0  0  0  0  0  0  0  0  0
    7.7578   43.9336  131.4176 H   0  0  0  0  0  0  0  0  0  0  0  0
    9.6991   46.9138  131.9763 C   0  0  0  0  0  0  0  0  0  0  0  0
   10.4348   48.0770  131.9988 O   0  0  0  0  0  0  0  0  0  0  0  0
   10.5355   48.4558  132.9191 H   0  0  0  0  0  0  0  0  0  0  0  0
   12.3845   43.9478  133.5769 C   0  0  0  0  0  0  0  0  0  0  0  0
   12.7510   42.8120  132.8401 O   0  0  0  0  0  0  0  0  0  0  0  0
   13.0490   43.1026  131.9391 H   0  0  0  0  0  0  0  0  0  0  0  0
  1  2  1  0  0  0
  1  3  1  0  0  0
  3  4  1  0  0  0
  3  5  1  0  0  0
  5 10  1  0  0  0
 10 11  1  0  0  0
  5  6  1  0  0  0
  6  7  1  0  0  0
  7 13  1  0  0  0
 13 14  1  0  0  0
  7  1  1  0  0  0
  2  8  1  0  0  0
  4  9  1  0  0  0
 11 12  1  0  0  0
 14 15  1  0  0  0
M  END
> <minimizedAffinity>
-4.57831

> <CNNscore>
0.5897079706

> <CNNaffinity>
3.9759509563

> <CNN_VS>
2.3446500301

> <CNNaffinity_variance>
0.7884732485

$$$$
[H]OC([H])([H])[C@@]1([H])O[C@]([H])(C([H])([H])O[H])[C@]([H])(O[H])[C@]1([H])O[H]


 15 15  0  0  0  0  0  0  0  0999 V2000
    8.6561   44.2774  132.3846 C   0  0  0  0  0  0  0  0  0  0  0  0
    8.1561   45.1584  131.4515 O   0  0  0  0  0  0  0  0  0  0  0  0
    9.2865   43.0530  131.7065 C   0  0  0  0  0  0  0  0  0  0  0  0
    9.6537   43.3572  130.4010 O   0  0  0  0  0  0  0  0  0  0  0  0
   10.4453   42.7739  132.5981 C   0  0  0  0  0  0  0  0  0  0  0  0
   10.4001   43.6556  133.6663 O   0  0  0  0  0  0  0  0  0  0  0  0
    9.8640   44.8187  133.1198 C   0  0  0  0  0  0  0  0  0  0  0  0
    7.5550   45.7845  131.9305 H   0  0  0  0  0  0  0  0  0  0  0  0
    8.8840   43.2317  129.8075 H   0  0  0  0  0  0  0  0  0  0  0  0
   11.7842   42.9498  131.9222 C   0  0  0  0  0  0  0  0  0  0  0  0
   12.8465   42.7888  132.7828 O   0  0  0  0  0  0  0  0  0  0  0  0
   13.4928   43.5514  132.7497 H   0  0  0  0  0  0  0  0  0  0  0  0
    9.4974   45.8427  134.1522 C   0  0  0  0  0  0  0  0  0  0  0  0
    8.1060   45.7783  134.3173 O   0  0  0  0  0  0  0  0  0  0  0  0
    7.8716   44.8831  134.6758 H   0  0  0  0  0  0  0  0  0  0  0  0
  1  2  1  0  0  0
  1  3  1  0  0  0
  3  4  1  0  0  0
  3  5  1  0  0  0
  5 10  1  0  0  0
 10 11  1  0  0  0
  5  6  1  0  0  0
  6  7  1  0  0  0
  7 13  1  0  0  0
 13 14  1  0  0  0
  7  1  1  0  0  0
  2  8  1  0  0  0
  4  9  1  0  0  0
 11 12  1  0  0  0
 14 15  1  0  0  0
M  END
> <minimizedAffinity>
-4.70807

> <CNNscore>
0.5869513750

> <CNNaffinity>
3.9647243023

> <CNN_VS>
2.3271002769

> <CNNaffinity_variance>
0.3781543076

$$$$
[H]OC([H])([H])[C@@]1([H])O[C@]([H])(C([H])([H])O[H])[C@]([H])(O[H])[C@]1([H])O[H]


 15 15  0  0  0  0  0  0  0  0999 V2000
    9.2957   45.3484  131.7200 C   0  0  0  0  0  0  0  0  0  0  0  0
    8.2057   45.6425  132.5089 O   0  0  0  0  0  0  0  0  0  0  0  0
   10.6039   45.7625  132.4084 C   0  0  0  0  0  0  0  0  0  0  0  0
   10.4250   45.8373  133.7846 O   0  0  0  0  0  0  0  0  0  0  0  0
   11.5268   44.6725  131.9892 C   0  0  0  0  0  0  0  0  0  0  0  0
   10.8503   43.8353  131.1164 O   0  0  0  0  0  0  0  0  0  0  0  0
    9.5363   43.8605  131.5768 C   0  0  0  0  0  0  0  0  0  0  0  0
    7.4019   45.5917  131.9309 H   0  0  0  0  0  0  0  0  0  0  0  0
   10.0749   46.7217  134.0209 H   0  0  0  0  0  0  0  0  0  0  0  0
   12.0221   43.8251  133.1369 C   0  0  0  0  0  0  0  0  0  0  0  0
   12.8342   42.7906  132.7305 O   0  0  0  0  0  0  0  0  0  0  0  0
   12.5444   41.9039  133.0912 H   0  0  0  0  0  0  0  0  0  0  0  0
    8.5675   43.2094  130.6355 C   0  0  0  0  0  0  0  0  0  0  0  0
    9.3181   42.4017  129.7686 O   0  0  0  0  0  0  0  0  0  0  0  0
    9.7556   41.6879  130.3015 H   0  0  0  0  0  0  0  0  0  0  0  0
  1  2  1  0  0  0
  1  3  1  0  0  0
  3  4  1  0  0  0
  3  5  1  0  0  0
  5 10  1  0  0  0
 10 11  1  0  0  0
  5  6  1  0  0  0
  6  7  1  0  0  0
  7 13  1  0  0  0
 13 14  1  0  0  0
  7  1  1  0  0  0
  2  8  1  0  0  0
  4  9  1  0  0  0
 11 12  1  0  0  0
 14 15  1  0  0  0
M  END
> <minimizedAffinity>
-4.74621

> <CNNscore>
0.5693833828

> <CNNaffinity>
3.9012675285

> <CNN_VS>
2.2213168144

> <CNNaffinity_variance>
0.4261518419

$$$$
[H]Oc1c([H])c([H])c2c(c1[H])C([H])([H])C([H])([H])[C@@]1([H])[C@]3([H])C([H])([H])C([H])([H])[C@]([H])(C([H])([H])C([H])(O[H])C([H])([H])C([H])([H])C([H])([H])C([H])([H])[H])[C@@]3(C([H])([H])[H])C([H])([H])C([H])([H])[C@@]21[H]


 28 31  0  0  0  0  0  0  0  0999 V2000
    8.9121   45.9105  133.2928 C   0  0  0  0  0  0  0  0  0  0  0  0
    9.7723   46.6411  134.2638 C   0  0  0  0  0  0  0  0  0  0  0  0
   10.3314   47.8646  133.4884 C   0  0  0  0  0  0  0  0  0  0  0  0
    9.6042   47.7995  132.1918 C   0  0  0  0  0  0  0  0  0  0  0  0
   10.1987   48.5353  131.0613 C   0  0  0  0  0  0  0  0  0  0  0  0
    9.9403   50.0127  131.2470 C   0  0  0  0  0  0  0  0  0  0  0  0
    8.4926   50.3417  131.3546 C   0  0  0  0  0  0  0  0  0  0  0  0
    7.6280   49.6373  130.4000 C   0  0  0  0  0  0  0  0  0  0  0  0
    6.2883   50.0288  130.2483 C   0  0  0  0  0  0  0  0  0  0  0  0
    5.4596   49.3984  129.3754 C   0  0  0  0  0  0  0  0  0  0  0  0
    4.1158   49.7867  129.2196 O   0  0  0  0  0  0  0  0  0  0  0  0
    5.9410   48.3638  128.6316 C   0  0  0  0  0  0  0  0  0  0  0  0
    7.2698   47.9797  128.7856 C   0  0  0  0  0  0  0  0  0  0  0  0
    8.1302   48.5970  129.6588 C   0  0  0  0  0  0  0  0  0  0  0  0
    9.5123   48.1470  129.7687 C   0  0  0  0  0  0  0  0  0  0  0  0
    9.5851   46.6563  129.6118 C   0  0  0  0  0  0  0  0  0  0  0  0
    8.8238   45.9929  130.7627 C   0  0  0  0  0  0  0  0  0  0  0  0
    9.6135   46.2759  131.9861 C   0  0  0  0  0  0  0  0  0  0  0  0
   10.9996   45.7311  131.9969 C   0  0  0  0  0  0  0  0  0  0  0  0
    3.5187   49.3031  128.5643 H   0  0  0  0  0  0  0  0  0  0  0  0
    8.7165   44.4677  133.3843 C   0  0  0  0  0  0  0  0  0  0  0  0
    9.7009   43.5394  132.8254 C   0  0  0  0  0  0  0  0  0  0  0  0
   10.3631   42.7896  133.8483 O   0  0  0  0  0  0  0  0  0  0  0  0
    9.8062   42.8976  134.6605 H   0  0  0  0  0  0  0  0  0  0  0  0
    9.1801   42.6092  131.7848 C   0  0  0  0  0  0  0  0  0  0  0  0
   10.0524   42.6042  130.5337 C   0  0  0  0  0  0  0  0  0  0  0  0
   10.0570   43.3761  128.2150 C   0  0  0  0  0  0  0  0  0  0  0  0
    9.1588   42.9808  129.3704 C   0  0  0  0  0  0  0  0  0  0  0  0
 27 28  1  0  0  0
 28 26  1  0  0  0
 26 25  1  0  0  0
 25 22  1  0  0  0
 22 23  1  0  0  0
 22 21  1  0  0  0
 21  1  1  0  0  0
  1  2  1  0  0  0
  2  3  1  0  0  0
  3  4  1  0  0  0
  4  5  1  0  0  0
  5  6  1  0  0  0
  6  7  1  0  0  0
  7  8  1  0  0  0
  8  9  2  0  0  0
  9 10  1  0  0  0
 10 11  1  0  0  0
 10 12  2  0  0  0
 12 13  1  0  0  0
 13 14  2  0  0  0
 14 15  1  0  0  0
 15 16  1  0  0  0
 16 17  1  0  0  0
 17 18  1  0  0  0
 18 19  1  0  0  0
 18  1  1  0  0  0
 18  4  1  0  0  0
 15  5  1  0  0  0
 14  8  1  0  0  0
 23 24  1  0  0  0
 11 20  1  0  0  0
M  END
> <minimizedAffinity>
-9.07225

> <CNNscore>
0.5181822181

> <CNNaffinity>
7.7554502487

> <CNN_VS>
4.0187363625

> <CNNaffinity_variance>
0.1544369459

$$$$
[H]Oc1c([H])c([H])c2c(c1[H])C([H])([H])C([H])([H])[C@@]1([H])[C@]3([H])C([H])([H])C([H])([H])[C@]([H])(C([H])([H])C([H])(O[H])C([H])([H])C([H])([H])C([H])([H])C([H])([H])[H])[C@@]3(C([H])([H])[H])C([H])([H])C([H])([H])[C@@]21[H]


 28 31  0  0  0  0  0  0  0  0999 V2000
    9.4617   47.1407  132.3883 C   0  0  0  0  0  0  0  0  0  0  0  0
    9.3721   46.5217  133.7394 C   0  0  0  0  0  0  0  0  0  0  0  0
    8.7046   45.1370  133.5209 C   0  0  0  0  0  0  0  0  0  0  0  0
    8.6246   45.0345  132.0386 C   0  0  0  0  0  0  0  0  0  0  0  0
    7.6603   44.0621  131.4931 C   0  0  0  0  0  0  0  0  0  0  0  0
    8.2211   42.6686  131.6596 C   0  0  0  0  0  0  0  0  0  0  0  0
    9.5428   42.4898  130.9989 C   0  0  0  0  0  0  0  0  0  0  0  0
    9.6491   43.0864  129.6618 C   0  0  0  0  0  0  0  0  0  0  0  0
   10.7556   42.7913  128.8497 C   0  0  0  0  0  0  0  0  0  0  0  0
   10.8870   43.3267  127.6079 C   0  0  0  0  0  0  0  0  0  0  0  0
   11.9942   43.0342  126.7898 O   0  0  0  0  0  0  0  0  0  0  0  0
    9.9226   44.1683  127.1419 C   0  0  0  0  0  0  0  0  0  0  0  0
    8.8275   44.4575  127.9509 C   0  0  0  0  0  0  0  0  0  0  0  0
    8.6677   43.9322  129.2088 C   0  0  0  0  0  0  0  0  0  0  0  0
    7.4941   44.2738  130.0030 C   0  0  0  0  0  0  0  0  0  0  0  0
    7.1014   45.7014  129.7585 C   0  0  0  0  0  0  0  0  0  0  0  0
    8.2279   46.6208  130.2382 C   0  0  0  0  0  0  0  0  0  0  0  0
    8.2540   46.4912  131.7157 C   0  0  0  0  0  0  0  0  0  0  0  0
    7.0093   46.9078  132.4196 C   0  0  0  0  0  0  0  0  0  0  0  0
   12.0701   43.4442  125.8700 H   0  0  0  0  0  0  0  0  0  0  0  0
    9.4312   48.5885  132.2107 C   0  0  0  0  0  0  0  0  0  0  0  0
    9.5910   49.4889  133.3538 C   0  0  0  0  0  0  0  0  0  0  0  0
    9.2740   50.8415  133.0117 O   0  0  0  0  0  0  0  0  0  0  0  0
    8.7747   50.7901  132.1575 H   0  0  0  0  0  0  0  0  0  0  0  0
    8.8435   49.0981  134.5818 C   0  0  0  0  0  0  0  0  0  0  0  0
    7.8307   50.1601  134.9972 C   0  0  0  0  0  0  0  0  0  0  0  0
    6.5726   48.6004  136.3960 C   0  0  0  0  0  0  0  0  0  0  0  0
    7.4274   49.8520  136.4241 C   0  0  0  0  0  0  0  0  0  0  0  0
 27 28  1  0  0  0
 28 26  1  0  0  0
 26 25  1  0  0  0
 25 22  1  0  0  0
 22 23  1  0  0  0
 22 21  1  0  0  0
 21  1  1  0  0  0
  1  2  1  0  0  0
  2  3  1  0  0  0
  3  4  1  0  0  0
  4  5  1  0  0  0
  5  6  1  0  0  0
  6  7  1  0  0  0
  7  8  1  0  0  0
  8  9  2  0  0  0
  9 10  1  0  0  0
 10 11  1  0  0  0
 10 12  2  0  0  0
 12 13  1  0  0  0
 13 14  2  0  0  0
 14 15  1  0  0  0
 15 16  1  0  0  0
 16 17  1  0  0  0
 17 18  1  0  0  0
 18 19  1  0  0  0
 18  1  1  0  0  0
 18  4  1  0  0  0
 15  5  1  0  0  0
 14  8  1  0  0  0
 23 24  1  0  0  0
 11 20  1  0  0  0
M  END
> <minimizedAffinity>
18.38166

> <CNNscore>
0.4884490371

> <CNNaffinity>
7.3998947144

> <CNN_VS>
3.6144714355

> <CNNaffinity_variance>
2.3023333549

$$$$
[H]Oc1c([H])c([H])c2c(c1[H])C([H])([H])C([H])([H])[C@@]1([H])[C@]3([H])C([H])([H])C([H])([H])[C@]([H])(C([H])([H])C([H])(O[H])C([H])([H])C([H])([H])C([H])([H])C([H])([H])[H])[C@@]3(C([H])([H])[H])C([H])([H])C([H])([H])[C@@]21[H]


 28 31  0  0  0  0  0  0  0  0999 V2000
   10.2765   46.2459  133.8652 C   0  0  0  0  0  0  0  0  0  0  0  0
   11.6523   46.6217  134.2926 C   0  0  0  0  0  0  0  0  0  0  0  0
   12.5938   45.5764  133.6356 C   0  0  0  0  0  0  0  0  0  0  0  0
   11.6729   44.7983  132.7635 C   0  0  0  0  0  0  0  0  0  0  0  0
   12.1345   43.4655  132.3351 C   0  0  0  0  0  0  0  0  0  0  0  0
   13.1787   43.6315  131.2551 C   0  0  0  0  0  0  0  0  0  0  0  0
   12.6820   44.3936  130.0769 C   0  0  0  0  0  0  0  0  0  0  0  0
   11.3297   44.0321  129.6348 C   0  0  0  0  0  0  0  0  0  0  0  0
   10.8432   44.5108  128.4079 C   0  0  0  0  0  0  0  0  0  0  0  0
    9.5963   44.1975  127.9683 C   0  0  0  0  0  0  0  0  0  0  0  0
    9.1037   44.6748  126.7394 O   0  0  0  0  0  0  0  0  0  0  0  0
    8.8019   43.4010  128.7364 C   0  0  0  0  0  0  0  0  0  0  0  0
    9.2889   42.9289  129.9517 C   0  0  0  0  0  0  0  0  0  0  0  0
   10.5432   43.2284  130.4216 C   0  0  0  0  0  0  0  0  0  0  0  0
   10.9930   42.6976  131.7026 C   0  0  0  0  0  0  0  0  0  0  0  0
    9.8488   42.6469  132.6723 C   0  0  0  0  0  0  0  0  0  0  0  0
    9.3590   44.0717  132.9451 C   0  0  0  0  0  0  0  0  0  0  0  0
   10.4515   44.7381  133.6953 C   0  0  0  0  0  0  0  0  0  0  0  0
   10.7953   44.1265  135.0090 C   0  0  0  0  0  0  0  0  0  0  0  0
    8.1734   44.4284  126.4334 H   0  0  0  0  0  0  0  0  0  0  0  0
    9.1144   46.5372  134.6978 C   0  0  0  0  0  0  0  0  0  0  0  0
    8.4751   47.8536  134.6608 C   0  0  0  0  0  0  0  0  0  0  0  0
    7.3337   47.8646  133.7981 O   0  0  0  0  0  0  0  0  0  0  0  0
    7.1067   46.9126  133.6446 H   0  0  0  0  0  0  0  0  0  0  0  0
    8.1009   48.4175  135.9880 C   0  0  0  0  0  0  0  0  0  0  0  0
    8.7418   49.7798  136.2320 C   0  0  0  0  0  0  0  0  0  0  0  0
    8.0996   49.9028  133.8773 C   0  0  0  0  0  0  0  0  0  0  0  0
    9.1567   50.3215  134.8799 C   0  0  0  0  0  0  0  0  0  0  0  0
 27 28  1  0  0  0
 28 26  1  0  0  0
 26 25  1  0  0  0
 25 22  1  0  0  0
 22 23  1  0  0  0
 22 21  1  0  0  0
 21  1  1  0  0  0
  1  2  1  0  0  0
  2  3  1  0  0  0
  3  4  1  0  0  0
  4  5  1  0  0  0
  5  6  1  0  0  0
  6  7  1  0  0  0
  7  8  1  0  0  0
  8  9  2  0  0  0
  9 10  1  0  0  0
 10 11  1  0  0  0
 10 12  2  0  0  0
 12 13  1  0  0  0
 13 14  2  0  0  0
 14 15  1  0  0  0
 15 16  1  0  0  0
 16 17  1  0  0  0
 17 18  1  0  0  0
 18 19  1  0  0  0
 18  1  1  0  0  0
 18  4  1  0  0  0
 15  5  1  0  0  0
 14  8  1  0  0  0
 23 24  1  0  0  0
 11 20  1  0  0  0
M  END
> <minimizedAffinity>
17.34622

> <CNNscore>
0.4304450750

> <CNNaffinity>
7.4514455795

> <CNN_VS>
3.2074379921

> <CNNaffinity_variance>
1.1821756363

$$$$
[H]Oc1c([H])c([H])c2c(c1[H])C([H])([H])C([H])([H])[C@@]1([H])[C@]3([H])C([H])([H])C([H])([H])[C@]([H])(C([H])([H])C([H])(O[H])C([H])([H])C([H])([H])C([H])([H])C([H])([H])[H])[C@@]3(C([H])([H])[H])C([H])([H])C([H])([H])[C@@]21[H]


 28 31  0  0  0  0  0  0  0  0999 V2000
    9.3271   44.7786  133.1111 C   0  0  0  0  0  0  0  0  0  0  0  0
    9.4928   45.0123  134.5721 C   0  0  0  0  0  0  0  0  0  0  0  0
   10.0267   46.4642  134.7049 C   0  0  0  0  0  0  0  0  0  0  0  0
    9.9609   46.9737  133.3084 C   0  0  0  0  0  0  0  0  0  0  0  0
   10.7914   48.1499  132.9927 C   0  0  0  0  0  0  0  0  0  0  0  0
   10.1412   49.3817  133.5793 C   0  0  0  0  0  0  0  0  0  0  0  0
    8.7540   49.5993  133.0854 C   0  0  0  0  0  0  0  0  0  0  0  0
    8.5715   49.3814  131.6452 C   0  0  0  0  0  0  0  0  0  0  0  0
    7.3748   49.7732  131.0243 C   0  0  0  0  0  0  0  0  0  0  0  0
    7.1713   49.5856  129.6941 C   0  0  0  0  0  0  0  0  0  0  0  0
    5.9736   49.9764  129.0667 O   0  0  0  0  0  0  0  0  0  0  0  0
    8.1514   49.0043  128.9477 C   0  0  0  0  0  0  0  0  0  0  0  0
    9.3358   48.6178  129.5680 C   0  0  0  0  0  0  0  0  0  0  0  0
    9.5698   48.7943  130.9089 C   0  0  0  0  0  0  0  0  0  0  0  0
   10.8351   48.3696  131.4951 C   0  0  0  0  0  0  0  0  0  0  0  0
   11.3139   47.1096  130.8356 C   0  0  0  0  0  0  0  0  0  0  0  0
   10.3121   45.9856  131.1140 C   0  0  0  0  0  0  0  0  0  0  0  0
   10.4129   45.7049  132.5671 C   0  0  0  0  0  0  0  0  0  0  0  0
   11.7461   45.2402  133.0411 C   0  0  0  0  0  0  0  0  0  0  0  0
    5.8452   49.8267  128.0763 H   0  0  0  0  0  0  0  0  0  0  0  0
    9.4543   43.4445  132.5343 C   0  0  0  0  0  0  0  0  0  0  0  0
    9.3785   43.2420  131.0865 C   0  0  0  0  0  0  0  0  0  0  0  0
    9.8335   41.9391  130.7089 O   0  0  0  0  0  0  0  0  0  0  0  0
    9.8402   41.4069  131.5444 H   0  0  0  0  0  0  0  0  0  0  0  0
    8.0440   43.4991  130.4763 C   0  0  0  0  0  0  0  0  0  0  0  0
    7.9780   44.8642  129.7992 C   0  0  0  0  0  0  0  0  0  0  0  0
    6.1390   46.4721  129.8693 C   0  0  0  0  0  0  0  0  0  0  0  0
    7.1856   45.7738  130.7148 C   0  0  0  0  0  0  0  0  0  0  0  0
 27 28  1  0  0  0
 28 26  1  0  0  0
 26 25  1  0  0  0
 25 22  1  0  0  0
 22 23  1  0  0  0
 22 21  1  0  0  0
 21  1  1  0  0  0
  1  2  1  0  0  0
  2  3  1  0  0  0
  3  4  1  0  0  0
  4  5  1  0  0  0
  5  6  1  0  0  0
  6  7  1  0  0  0
  7  8  1  0  0  0
  8  9  2  0  0  0
  9 10  1  0  0  0
 10 11  1  0  0  0
 10 12  2  0  0  0
 12 13  1  0  0  0
 13 14  2  0  0  0
 14 15  1  0  0  0
 15 16  1  0  0  0
 16 17  1  0  0  0
 17 18  1  0  0  0
 18 19  1  0  0  0
 18  1  1  0  0  0
 18  4  1  0  0  0
 15  5  1  0  0  0
 14  8  1  0  0  0
 23 24  1  0  0  0
 11 20  1  0  0  0
M  END
> <minimizedAffinity>
-4.70639

> <CNNscore>
0.4153684676

> <CNNaffinity>
7.4424982071

> <CNN_VS>
3.0913791656

> <CNNaffinity_variance>
0.2804999948

$$$$
[H]Oc1c([H])c([H])c2c(c1[H])C([H])([H])C([H])([H])[C@@]1([H])[C@]3([H])C([H])([H])C([H])([H])[C@]([H])(C([H])([H])C([H])(O[H])C([H])([H])C([H])([H])C([H])([H])C([H])([H])[H])[C@@]3(C([H])([H])[H])C([H])([H])C([H])([H])[C@@]21[H]


 28 31  0  0  0  0  0  0  0  0999 V2000
    8.8849   48.0014  130.8256 C   0  0  0  0  0  0  0  0  0  0  0  0
    9.8760   49.1113  130.8751 C   0  0  0  0  0  0  0  0  0  0  0  0
   10.7500   48.8352  132.1284 C   0  0  0  0  0  0  0  0  0  0  0  0
   10.2715   47.5014  132.5825 C   0  0  0  0  0  0  0  0  0  0  0  0
   10.5657   47.1325  133.9790 C   0  0  0  0  0  0  0  0  0  0  0  0
   12.0258   46.7583  134.0905 C   0  0  0  0  0  0  0  0  0  0  0  0
   12.4120   45.6424  133.1842 C   0  0  0  0  0  0  0  0  0  0  0  0
   11.4511   44.5341  133.1274 C   0  0  0  0  0  0  0  0  0  0  0  0
   11.8056   43.3324  132.4939 C   0  0  0  0  0  0  0  0  0  0  0  0
   10.9410   42.2868  132.4214 C   0  0  0  0  0  0  0  0  0  0  0  0
   11.2912   41.0801  131.7875 O   0  0  0  0  0  0  0  0  0  0  0  0
    9.7030   42.4089  132.9765 C   0  0  0  0  0  0  0  0  0  0  0  0
    9.3566   43.6022  133.6035 C   0  0  0  0  0  0  0  0  0  0  0  0
   10.2082   44.6749  133.6922 C   0  0  0  0  0  0  0  0  0  0  0  0
    9.7833   45.8954  134.3665 C   0  0  0  0  0  0  0  0  0  0  0  0
    8.3257   46.1463  134.1126 C   0  0  0  0  0  0  0  0  0  0  0  0
    8.1110   46.3849  132.6155 C   0  0  0  0  0  0  0  0  0  0  0  0
    8.7682   47.6802  132.3143 C   0  0  0  0  0  0  0  0  0  0  0  0
    8.2206   48.8621  133.0363 C   0  0  0  0  0  0  0  0  0  0  0  0
   10.6316   40.3165  131.7461 H   0  0  0  0  0  0  0  0  0  0  0  0
    7.5636   48.1865  130.2353 C   0  0  0  0  0  0  0  0  0  0  0  0
    7.0147   47.2034  129.2998 C   0  0  0  0  0  0  0  0  0  0  0  0
    6.2745   47.8289  128.2472 O   0  0  0  0  0  0  0  0  0  0  0  0
    6.5374   48.7839  128.2679 H   0  0  0  0  0  0  0  0  0  0  0  0
    8.0060   46.2567  128.7162 C   0  0  0  0  0  0  0  0  0  0  0  0
    8.1340   44.9812  129.5426 C   0  0  0  0  0  0  0  0  0  0  0  0
   10.3743   45.4282  128.6747 C   0  0  0  0  0  0  0  0  0  0  0  0
    9.6104   44.7731  129.8084 C   0  0  0  0  0  0  0  0  0  0  0  0
 27 28  1  0  0  0
 28 26  1  0  0  0
 26 25  1  0  0  0
 25 22  1  0  0  0
 22 23  1  0  0  0
 22 21  1  0  0  0
 21  1  1  0  0  0
  1  2  1  0  0  0
  2  3  1  0  0  0
  3  4  1  0  0  0
  4  5  1  0  0  0
  5  6  1  0  0  0
  6  7  1  0  0  0
  7  8  1  0  0  0
  8  9  2  0  0  0
  9 10  1  0  0  0
 10 11  1  0  0  0
 10 12  2  0  0  0
 12 13  1  0  0  0
 13 14  2  0  0  0
 14 15  1  0  0  0
 15 16  1  0  0  0
 16 17  1  0  0  0
 17 18  1  0  0  0
 18 19  1  0  0  0
 18  1  1  0  0  0
 18  4  1  0  0  0
 15  5  1  0  0  0
 14  8  1  0  0  0
 23 24  1  0  0  0
 11 20  1  0  0  0
M  END
> <minimizedAffinity>
-5.47553

> <CNNscore>
0.3612543046

> <CNNaffinity>
7.5913109779

> <CNN_VS>
2.7423937321

> <CNNaffinity_variance>
0.3795041144

$$$$
[H]Oc1c([H])c([H])c2c(c1[H])C([H])([H])C([H])([H])[C@@]1([H])[C@]3([H])C([H])([H])C([H])([H])[C@]([H])(C([H])([H])C([H])(O[H])C([H])([H])C([H])([H])C([H])([H])C([H])([H])[H])[C@@]3(C([H])([H])[H])C([H])([H])C([H])([H])[C@@]21[H]


 28 31  0  0  0  0  0  0  0  0999 V2000
   10.5382   45.4114  129.2064 C   0  0  0  0  0  0  0  0  0  0  0  0
    9.8552   44.1748  128.7364 C   0  0  0  0  0  0  0  0  0  0  0  0
    8.3921   44.2872  129.2441 C   0  0  0  0  0  0  0  0  0  0  0  0
    8.3423   45.6586  129.8194 C   0  0  0  0  0  0  0  0  0  0  0  0
    7.2526   45.9379  130.7720 C   0  0  0  0  0  0  0  0  0  0  0  0
    5.9608   46.1040  130.0051 C   0  0  0  0  0  0  0  0  0  0  0  0
    6.0246   47.1852  128.9840 C   0  0  0  0  0  0  0  0  0  0  0  0
    6.6877   48.4163  129.4307 C   0  0  0  0  0  0  0  0  0  0  0  0
    6.6089   49.5778  128.6461 C   0  0  0  0  0  0  0  0  0  0  0  0
    7.2115   50.7341  129.0281 C   0  0  0  0  0  0  0  0  0  0  0  0
    7.1356   51.9013  128.2453 O   0  0  0  0  0  0  0  0  0  0  0  0
    7.9072   50.7654  130.1988 C   0  0  0  0  0  0  0  0  0  0  0  0
    7.9822   49.6112  130.9730 C   0  0  0  0  0  0  0  0  0  0  0  0
    7.3843   48.4293  130.6132 C   0  0  0  0  0  0  0  0  0  0  0  0
    7.4990   47.2575  131.4725 C   0  0  0  0  0  0  0  0  0  0  0  0
    8.8545   47.2177  132.1151 C   0  0  0  0  0  0  0  0  0  0  0  0
    9.9208   47.0597  131.0278 C   0  0  0  0  0  0  0  0  0  0  0  0
    9.7334   45.6969  130.4727 C   0  0  0  0  0  0  0  0  0  0  0  0
    9.9146   44.5786  131.4395 C   0  0  0  0  0  0  0  0  0  0  0  0
    7.5918   52.7493  128.5499 H   0  0  0  0  0  0  0  0  0  0  0  0
   11.9688   45.4290  129.4924 C   0  0  0  0  0  0  0  0  0  0  0  0
   12.6321   44.2624  130.0772 C   0  0  0  0  0  0  0  0  0  0  0  0
   14.0100   44.1908  129.6985 O   0  0  0  0  0  0  0  0  0  0  0  0
   14.2369   45.0893  129.3483 H   0  0  0  0  0  0  0  0  0  0  0  0
   12.5159   44.1390  131.5573 C   0  0  0  0  0  0  0  0  0  0  0  0
   12.8027   45.4590  132.2656 C   0  0  0  0  0  0  0  0  0  0  0  0
   12.1851   43.7951  133.9455 C   0  0  0  0  0  0  0  0  0  0  0  0
   12.4077   45.2769  133.7163 C   0  0  0  0  0  0  0  0  0  0  0  0
 27 28  1  0  0  0
 28 26  1  0  0  0
 26 25  1  0  0  0
 25 22  1  0  0  0
 22 23  1  0  0  0
 22 21  1  0  0  0
 21  1  1  0  0  0
  1  2  1  0  0  0
  2  3  1  0  0  0
  3  4  1  0  0  0
  4  5  1  0  0  0
  5  6  1  0  0  0
  6  7  1  0  0  0
  7  8  1  0  0  0
  8  9  2  0  0  0
  9 10  1  0  0  0
 10 11  1  0  0  0
 10 12  2  0  0  0
 12 13  1  0  0  0
 13 14  2  0  0  0
 14 15  1  0  0  0
 15 16  1  0  0  0
 16 17  1  0  0  0
 17 18  1  0  0  0
 18 19  1  0  0  0
 18  1  1  0  0  0
 18  4  1  0  0  0
 15  5  1  0  0  0
 14  8  1  0  0  0
 23 24  1  0  0  0
 11 20  1  0  0  0
M  END
> <minimizedAffinity>
-6.74311

> <CNNscore>
0.3413467705

> <CNNaffinity>
7.3505797386

> <CNN_VS>
2.5090966225

> <CNNaffinity_variance>
0.3082321286

$$$$
[H]Oc1c([H])c([H])c2c(c1[H])C([H])([H])C([H])([H])[C@@]1([H])[C@]3([H])C([H])([H])C([H])([H])[C@]([H])(C([H])([H])C([H])(O[H])C([H])([H])C([H])([H])C([H])([H])C([H])([H])[H])[C@@]3(C([H])([H])[H])C([H])([H])C([H])([H])[C@@]21[H]


 28 31  0  0  0  0  0  0  0  0999 V2000
   11.5058   45.0709  130.7948 C   0  0  0  0  0  0  0  0  0  0  0  0
   11.3232   44.4989  129.4324 C   0  0  0  0  0  0  0  0  0  0  0  0
    9.8888   44.9047  128.9980 C   0  0  0  0  0  0  0  0  0  0  0  0
    9.4503   45.8090  130.0953 C   0  0  0  0  0  0  0  0  0  0  0  0
    7.9989   46.0259  130.2346 C   0  0  0  0  0  0  0  0  0  0  0  0
    7.5355   46.9620  129.1423 C   0  0  0  0  0  0  0  0  0  0  0  0
    8.2429   48.2716  129.1586 C   0  0  0  0  0  0  0  0  0  0  0  0
    8.4261   48.8564  130.4926 C   0  0  0  0  0  0  0  0  0  0  0  0
    8.8688   50.1825  130.6205 C   0  0  0  0  0  0  0  0  0  0  0  0
    9.0506   50.7553  131.8391 C   0  0  0  0  0  0  0  0  0  0  0  0
    9.4943   52.0842  131.9730 O   0  0  0  0  0  0  0  0  0  0  0  0
    8.7970   50.0251  132.9607 C   0  0  0  0  0  0  0  0  0  0  0  0
    8.3582   48.7109  132.8284 C   0  0  0  0  0  0  0  0  0  0  0  0
    8.1657   48.1058  131.6117 C   0  0  0  0  0  0  0  0  0  0  0  0
    7.7005   46.7260  131.5437 C   0  0  0  0  0  0  0  0  0  0  0  0
    8.2921   45.9246  132.6661 C   0  0  0  0  0  0  0  0  0  0  0  0
    9.8133   45.8744  132.4993 C   0  0  0  0  0  0  0  0  0  0  0  0
   10.0604   45.0546  131.2880 C   0  0  0  0  0  0  0  0  0  0  0  0
    9.5732   43.6487  131.3529 C   0  0  0  0  0  0  0  0  0  0  0  0
    9.6221   52.4885  132.8895 H   0  0  0  0  0  0  0  0  0  0  0  0
   12.3887   44.4431  131.7720 C   0  0  0  0  0  0  0  0  0  0  0  0
   12.3536   42.9968  131.9957 C   0  0  0  0  0  0  0  0  0  0  0  0
   13.3727   42.5765  132.9078 O   0  0  0  0  0  0  0  0  0  0  0  0
   13.6805   43.4015  133.3617 H   0  0  0  0  0  0  0  0  0  0  0  0
   11.0382   42.4518  132.4339 C   0  0  0  0  0  0  0  0  0  0  0  0
   10.6953   41.1456  131.7250 C   0  0  0  0  0  0  0  0  0  0  0  0
    8.8250   41.7131  130.2580 C   0  0  0  0  0  0  0  0  0  0  0  0
   10.3254   41.5002  130.2999 C   0  0  0  0  0  0  0  0  0  0  0  0
 27 28  1  0  0  0
 28 26  1  0  0  0
 26 25  1  0  0  0
 25 22  1  0  0  0
 22 23  1  0  0  0
 22 21  1  0  0  0
 21  1  1  0  0  0
  1  2  1  0  0  0
  2  3  1  0  0  0
  3  4  1  0  0  0
  4  5  1  0  0  0
  5  6  1  0  0  0
  6  7  1  0  0  0
  7  8  1  0  0  0
  8  9  2  0  0  0
  9 10  1  0  0  0
 10 11  1  0  0  0
 10 12  2  0  0  0
 12 13  1  0  0  0
 13 14  2  0  0  0
 14 15  1  0  0  0
 15 16  1  0  0  0
 16 17  1  0  0  0
 17 18  1  0  0  0
 18 19  1  0  0  0
 18  1  1  0  0  0
 18  4  1  0  0  0
 15  5  1  0  0  0
 14  8  1  0  0  0
 23 24  1  0  0  0
 11 20  1  0  0  0
M  END
> <minimizedAffinity>
0.19613

> <CNNscore>
0.2831582129

> <CNNaffinity>
7.6051812172

> <CNN_VS>
2.1534695625

> <CNNaffinity_variance>
0.9743169546

$$$$
[H]Oc1c([H])c([H])c2c(c1[H])C([H])([H])C([H])([H])[C@@]1([H])[C@]3([H])C([H])([H])C([H])([H])[C@]([H])(C([H])([H])C([H])(O[H])C([H])([H])C([H])([H])C([H])([H])C([H])([H])[H])[C@@]3(C([H])([H])[H])C([H])([H])C([H])([H])[C@@]21[H]


 28 31  0  0  0  0  0  0  0  0999 V2000
   10.7275   46.6677  130.0814 C   0  0  0  0  0  0  0  0  0  0  0  0
   12.1925   46.4182  129.9919 C   0  0  0  0  0  0  0  0  0  0  0  0
   12.5717   45.6815  131.3050 C   0  0  0  0  0  0  0  0  0  0  0  0
   11.2509   45.4396  131.9461 C   0  0  0  0  0  0  0  0  0  0  0  0
   11.2584   45.1601  133.3934 C   0  0  0  0  0  0  0  0  0  0  0  0
   11.7391   43.7449  133.6175 C   0  0  0  0  0  0  0  0  0  0  0  0
   10.9085   42.7294  132.9143 C   0  0  0  0  0  0  0  0  0  0  0  0
    9.4601   42.9533  132.9975 C   0  0  0  0  0  0  0  0  0  0  0  0
    8.5718   41.9514  132.5758 C   0  0  0  0  0  0  0  0  0  0  0  0
    7.2256   42.1251  132.6372 C   0  0  0  0  0  0  0  0  0  0  0  0
    6.3307   41.1239  132.2158 O   0  0  0  0  0  0  0  0  0  0  0  0
    6.7286   43.2982  133.1191 C   0  0  0  0  0  0  0  0  0  0  0  0
    7.6135   44.2883  133.5360 C   0  0  0  0  0  0  0  0  0  0  0  0
    8.9772   44.1416  133.4858 C   0  0  0  0  0  0  0  0  0  0  0  0
    9.8483   45.2176  133.9421 C   0  0  0  0  0  0  0  0  0  0  0  0
    9.2495   46.5497  133.5971 C   0  0  0  0  0  0  0  0  0  0  0  0
    9.1640   46.6820  132.0741 C   0  0  0  0  0  0  0  0  0  0  0  0
   10.5656   46.7707  131.5966 C   0  0  0  0  0  0  0  0  0  0  0  0
   11.3442   47.9357  132.1016 C   0  0  0  0  0  0  0  0  0  0  0  0
    5.3338   41.2759  132.2710 H   0  0  0  0  0  0  0  0  0  0  0  0
   10.1082   47.8112  129.4201 C   0  0  0  0  0  0  0  0  0  0  0  0
    9.3151   48.7791  130.1797 C   0  0  0  0  0  0  0  0  0  0  0  0
   10.1274   49.8317  130.7083 O   0  0  0  0  0  0  0  0  0  0  0  0
   10.9821   49.7844  130.2096 H   0  0  0  0  0  0  0  0  0  0  0  0
    8.1551   49.3642  129.4506 C   0  0  0  0  0  0  0  0  0  0  0  0
    6.9481   48.4318  129.4539 C   0  0  0  0  0  0  0  0  0  0  0  0
    6.0779   50.5498  130.3077 C   0  0  0  0  0  0  0  0  0  0  0  0
    5.7138   49.3070  129.5197 C   0  0  0  0  0  0  0  0  0  0  0  0
 27 28  1  0  0  0
 28 26  1  0  0  0
 26 25  1  0  0  0
 25 22  1  0  0  0
 22 23  1  0  0  0
 22 21  1  0  0  0
 21  1  1  0  0  0
  1  2  1  0  0  0
  2  3  1  0  0  0
  3  4  1  0  0  0
  4  5  1  0  0  0
  5  6  1  0  0  0
  6  7  1  0  0  0
  7  8  1  0  0  0
  8  9  2  0  0  0
  9 10  1  0  0  0
 10 11  1  0  0  0
 10 12  2  0  0  0
 12 13  1  0  0  0
 13 14  2  0  0  0
 14 15  1  0  0  0
 15 16  1  0  0  0
 16 17  1  0  0  0
 17 18  1  0  0  0
 18 19  1  0  0  0
 18  1  1  0  0  0
 18  4  1  0  0  0
 15  5  1  0  0  0
 14  8  1  0  0  0
 23 24  1  0  0  0
 11 20  1  0  0  0
M  END
> <minimizedAffinity>
7.73892

> <CNNscore>
0.2349566072

> <CNNaffinity>
7.2913084030

> <CNN_VS>
1.7131410837

> <CNNaffinity_variance>
0.7422121167

$$$$
[H]Oc1c([H])c([H])c2c(c1[H])C([H])([H])C([H])([H])[C@@]1([H])[C@]3([H])C([H])([H])C([H])([H])[C@]([H])(C([H])([H])C([H])(O[H])C([H])([H])C([H])([H])C([H])([H])C([H])([H])[H])[C@@]3(C([H])([H])[H])C([H])([H])C([H])([H])[C@@]21[H]


 28 31  0  0  0  0  0  0  0  0999 V2000
   12.1910   45.0540  131.6767 C   0  0  0  0  0  0  0  0  0  0  0  0
   13.2756   44.7508  130.7028 C   0  0  0  0  0  0  0  0  0  0  0  0
   12.5603   44.4848  129.3506 C   0  0  0  0  0  0  0  0  0  0  0  0
   11.1422   44.8213  129.6507 C   0  0  0  0  0  0  0  0  0  0  0  0
   10.1237   44.2717  128.7376 C   0  0  0  0  0  0  0  0  0  0  0  0
   10.1432   45.0606  127.4487 C   0  0  0  0  0  0  0  0  0  0  0  0
    9.9024   46.5153  127.6524 C   0  0  0  0  0  0  0  0  0  0  0  0
    8.8311   46.8353  128.6036 C   0  0  0  0  0  0  0  0  0  0  0  0
    8.3579   48.1529  128.7075 C   0  0  0  0  0  0  0  0  0  0  0  0
    7.3688   48.4850  129.5778 C   0  0  0  0  0  0  0  0  0  0  0  0
    6.8909   49.8044  129.6860 O   0  0  0  0  0  0  0  0  0  0  0  0
    6.8252   47.5165  130.3665 C   0  0  0  0  0  0  0  0  0  0  0  0
    7.2977   46.2117  130.2596 C   0  0  0  0  0  0  0  0  0  0  0  0
    8.2951   45.8465  129.3903 C   0  0  0  0  0  0  0  0  0  0  0  0
    8.7412   44.4603  129.3258 C   0  0  0  0  0  0  0  0  0  0  0  0
    8.7093   43.8423  130.6929 C   0  0  0  0  0  0  0  0  0  0  0  0
    9.7054   44.5731  131.5973 C   0  0  0  0  0  0  0  0  0  0  0  0
   11.0510   44.2382  131.0703 C   0  0  0  0  0  0  0  0  0  0  0  0
   11.4082   42.7925  131.0918 C   0  0  0  0  0  0  0  0  0  0  0  0
    6.1547   50.0272  130.3403 H   0  0  0  0  0  0  0  0  0  0  0  0
   12.3376   44.7543  133.0970 C   0  0  0  0  0  0  0  0  0  0  0  0
   11.6759   45.5778  134.1104 C   0  0  0  0  0  0  0  0  0  0  0  0
   11.2277   46.8246  133.5704 O   0  0  0  0  0  0  0  0  0  0  0  0
   11.2443   46.7101  132.5865 H   0  0  0  0  0  0  0  0  0  0  0  0
   10.5540   44.9173  134.8347 C   0  0  0  0  0  0  0  0  0  0  0  0
   10.8945   43.4847  135.2321 C   0  0  0  0  0  0  0  0  0  0  0  0
    8.8751   42.9668  133.9569 C   0  0  0  0  0  0  0  0  0  0  0  0
   10.3275   42.5813  134.1570 C   0  0  0  0  0  0  0  0  0  0  0  0
 27 28  1  0  0  0
 28 26  1  0  0  0
 26 25  1  0  0  0
 25 22  1  0  0  0
 22 23  1  0  0  0
 22 21  1  0  0  0
 21  1  1  0  0  0
  1  2  1  0  0  0
  2  3  1  0  0  0
  3  4  1  0  0  0
  4  5  1  0  0  0
  5  6  1  0  0  0
  6  7  1  0  0  0
  7  8  1  0  0  0
  8  9  2  0  0  0
  9 10  1  0  0  0
 10 11  1  0  0  0
 10 12  2  0  0  0
 12 13  1  0  0  0
 13 14  2  0  0  0
 14 15  1  0  0  0
 15 16  1  0  0  0
 16 17  1  0  0  0
 17 18  1  0  0  0
 18 19  1  0  0  0
 18  1  1  0  0  0
 18  4  1  0  0  0
 15  5  1  0  0  0
 14  8  1  0  0  0
 23 24  1  0  0  0
 11 20  1  0  0  0
M  END
> <minimizedAffinity>
-3.28552

> <CNNscore>
0.1991301328

> <CNNaffinity>
7.1108961105

> <CNN_VS>
1.4159936905

> <CNNaffinity_variance>
0.1832047403

$$$$
[H]Oc1c([H])c([H])c([H])c2c1c(C([H])([H])C([H])([H])C(=O)N([H])C([H])([H])C1([H])C([H])([H])C([H])([H])OC([H])([H])C1([H])[H])c([H])n2C(=O)c1c([H])c([H])c2c(c1[H])C([H])([H])C([H])([H])O2


 35 39  0  0  0  0  0  0  0  0999 V2000
    9.1359   44.8928  126.6190 O   0  0  0  0  0  0  0  0  0  0  0  0
    9.3831   44.1619  127.7328 C   0  0  0  0  0  0  0  0  0  0  0  0
    9.7098   42.7936  127.5768 C   0  0  0  0  0  0  0  0  0  0  0  0
    9.9694   42.0200  128.6593 C   0  0  0  0  0  0  0  0  0  0  0  0
    9.9236   42.5452  129.9586 C   0  0  0  0  0  0  0  0  0  0  0  0
    9.6081   43.8651  130.1098 C   0  0  0  0  0  0  0  0  0  0  0  0
    9.4990   44.6329  131.2271 N   0  0  0  0  0  0  0  0  0  0  0  0
    9.1712   45.8797  130.8653 C   0  0  0  0  0  0  0  0  0  0  0  0
    9.0567   45.9552  129.4673 C   0  0  0  0  0  0  0  0  0  0  0  0
    9.3340   44.6908  129.0167 C   0  0  0  0  0  0  0  0  0  0  0  0
    9.7276   44.1412  132.5431 C   0  0  0  0  0  0  0  0  0  0  0  0
   10.0125   42.9410  132.8122 O   0  0  0  0  0  0  0  0  0  0  0  0
    8.9115   45.7495  126.3083 H   0  0  0  0  0  0  0  0  0  0  0  0
    9.6448   45.0175  133.7084 C   0  0  0  0  0  0  0  0  0  0  0  0
   10.5570   44.9255  134.7392 C   0  0  0  0  0  0  0  0  0  0  0  0
   10.4867   45.7831  135.8189 C   0  0  0  0  0  0  0  0  0  0  0  0
    9.4931   46.7557  135.8851 C   0  0  0  0  0  0  0  0  0  0  0  0
    9.2641   47.6913  136.8707 O   0  0  0  0  0  0  0  0  0  0  0  0
    8.3169   48.6176  136.3772 C   0  0  0  0  0  0  0  0  0  0  0  0
    7.6596   47.9467  135.1917 C   0  0  0  0  0  0  0  0  0  0  0  0
    8.5966   46.8418  134.8651 C   0  0  0  0  0  0  0  0  0  0  0  0
    8.6760   45.9739  133.7818 C   0  0  0  0  0  0  0  0  0  0  0  0
    8.6718   47.1595  128.7070 C   0  0  0  0  0  0  0  0  0  0  0  0
    8.7987   48.3575  129.6443 C   0  0  0  0  0  0  0  0  0  0  0  0
    7.6001   49.2093  129.6039 C   0  0  0  0  0  0  0  0  0  0  0  0
    6.5405   48.7830  130.1025 O   0  0  0  0  0  0  0  0  0  0  0  0
    7.6644   50.4803  129.0086 N   0  0  0  0  0  0  0  0  0  0  0  0
    8.5811   50.8058  128.5951 H   0  0  0  0  0  0  0  0  0  0  0  0
    6.5348   51.3536  128.9408 C   0  0  0  0  0  0  0  0  0  0  0  0
    6.7391   52.3979  127.8957 C   0  0  0  0  0  0  0  0  0  0  0  0
    7.4973   53.5877  128.4979 C   0  0  0  0  0  0  0  0  0  0  0  0
    7.5146   54.6555  127.4173 C   0  0  0  0  0  0  0  0  0  0  0  0
    7.1393   54.1575  126.1732 O   0  0  0  0  0  0  0  0  0  0  0  0
    7.8460   53.0303  125.8142 C   0  0  0  0  0  0  0  0  0  0  0  0
    7.6878   51.8861  126.7920 C   0  0  0  0  0  0  0  0  0  0  0  0
  1  2  1  0  0  0
  2  3  2  0  0  0
  3  4  1  0  0  0
  4  5  2  0  0  0
  5  6  1  0  0  0
  6  7  1  0  0  0
  7  8  1  0  0  0
  8  9  2  0  0  0
  9 23  1  0  0  0
 23 24  1  0  0  0
 24 25  1  0  0  0
 25 26  2  0  0  0
 25 27  1  0  0  0
 27 29  1  0  0  0
 29 30  1  0  0  0
 30 31  1  0  0  0
 31 32  1  0  0  0
 32 33  1  0  0  0
 33 34  1  0  0  0
 34 35  1  0  0  0
  9 10  1  0  0  0
  7 11  1  0  0  0
 11 12  2  0  0  0
 11 14  1  0  0  0
 14 15  2  0  0  0
 15 16  1  0  0  0
 16 17  2  0  0  0
 17 18  1  0  0  0
 18 19  1  0  0  0
 19 20  1  0  0  0
 20 21  1  0  0  0
 21 22  2  0  0  0
 10  2  1  0  0  0
 22 14  1  0  0  0
 10  6  2  0  0  0
 21 17  1  0  0  0
 35 30  1  0  0  0
  1 13  1  0  0  0
 27 28  1  0  0  0
M  END
> <minimizedAffinity>
15.66944

> <CNNscore>
0.4509496987

> <CNNaffinity>
7.4831376076

> <CNN_VS>
3.3745186329

> <CNNaffinity_variance>
2.4058771133

$$$$
[H]Oc1c([H])c([H])c([H])c2c1c(C([H])([H])C([H])([H])C(=O)N([H])C([H])([H])C1([H])C([H])([H])C([H])([H])OC([H])([H])C1([H])[H])c([H])n2C(=O)c1c([H])c([H])c2c(c1[H])C([H])([H])C([H])([H])O2


 35 39  0  0  0  0  0  0  0  0999 V2000
   10.5031   45.1937  137.0760 O   0  0  0  0  0  0  0  0  0  0  0  0
    9.8049   46.2214  136.5356 C   0  0  0  0  0  0  0  0  0  0  0  0
    9.2444   47.1830  137.4099 C   0  0  0  0  0  0  0  0  0  0  0  0
    8.5401   48.2322  136.9190 C   0  0  0  0  0  0  0  0  0  0  0  0
    8.3453   48.3985  135.5404 C   0  0  0  0  0  0  0  0  0  0  0  0
    8.8855   47.4709  134.6964 C   0  0  0  0  0  0  0  0  0  0  0  0
    8.8651   47.3820  133.3394 N   0  0  0  0  0  0  0  0  0  0  0  0
    9.5441   46.2897  132.9668 C   0  0  0  0  0  0  0  0  0  0  0  0
   10.0359   45.6246  134.1022 C   0  0  0  0  0  0  0  0  0  0  0  0
    9.6160   46.3773  135.1679 C   0  0  0  0  0  0  0  0  0  0  0  0
    8.2259   48.3369  132.4995 C   0  0  0  0  0  0  0  0  0  0  0  0
    7.5808   49.3357  132.9241 O   0  0  0  0  0  0  0  0  0  0  0  0
   10.9935   44.4199  136.8724 H   0  0  0  0  0  0  0  0  0  0  0  0
    8.2727   48.2232  131.0443 C   0  0  0  0  0  0  0  0  0  0  0  0
    7.5332   49.0624  130.2367 C   0  0  0  0  0  0  0  0  0  0  0  0
    7.6133   48.9655  128.8619 C   0  0  0  0  0  0  0  0  0  0  0  0
    8.4424   48.0186  128.2673 C   0  0  0  0  0  0  0  0  0  0  0  0
    8.6523   47.7734  126.9276 O   0  0  0  0  0  0  0  0  0  0  0  0
    9.7629   46.9061  126.8145 C   0  0  0  0  0  0  0  0  0  0  0  0
    9.9516   46.2935  128.1844 C   0  0  0  0  0  0  0  0  0  0  0  0
    9.1696   47.1941  129.0692 C   0  0  0  0  0  0  0  0  0  0  0  0
    9.0825   47.2997  130.4527 C   0  0  0  0  0  0  0  0  0  0  0  0
   10.7987   44.3619  134.0871 C   0  0  0  0  0  0  0  0  0  0  0  0
    9.8285   43.2322  134.4221 C   0  0  0  0  0  0  0  0  0  0  0  0
    9.1111   42.7591  133.2281 C   0  0  0  0  0  0  0  0  0  0  0  0
    7.9591   42.3023  133.3586 O   0  0  0  0  0  0  0  0  0  0  0  0
    9.7286   42.8271  131.9679 N   0  0  0  0  0  0  0  0  0  0  0  0
   10.7075   43.2197  131.8983 H   0  0  0  0  0  0  0  0  0  0  0  0
    9.0821   42.3851  130.7722 C   0  0  0  0  0  0  0  0  0  0  0  0
    9.6423   43.0864  129.5810 C   0  0  0  0  0  0  0  0  0  0  0  0
   11.1276   43.3910  129.8141 C   0  0  0  0  0  0  0  0  0  0  0  0
   11.5652   44.2393  128.6321 C   0  0  0  0  0  0  0  0  0  0  0  0
   10.6353   44.2268  127.5968 O   0  0  0  0  0  0  0  0  0  0  0  0
   10.2673   42.9519  127.2254 C   0  0  0  0  0  0  0  0  0  0  0  0
    9.6535   42.1517  128.3537 C   0  0  0  0  0  0  0  0  0  0  0  0
  1  2  1  0  0  0
  2  3  2  0  0  0
  3  4  1  0  0  0
  4  5  2  0  0  0
  5  6  1  0  0  0
  6  7  1  0  0  0
  7  8  1  0  0  0
  8  9  2  0  0  0
  9 23  1  0  0  0
 23 24  1  0  0  0
 24 25  1  0  0  0
 25 26  2  0  0  0
 25 27  1  0  0  0
 27 29  1  0  0  0
 29 30  1  0  0  0
 30 31  1  0  0  0
 31 32  1  0  0  0
 32 33  1  0  0  0
 33 34  1  0  0  0
 34 35  1  0  0  0
  9 10  1  0  0  0
  7 11  1  0  0  0
 11 12  2  0  0  0
 11 14  1  0  0  0
 14 15  2  0  0  0
 15 16  1  0  0  0
 16 17  2  0  0  0
 17 18  1  0  0  0
 18 19  1  0  0  0
 19 20  1  0  0  0
 20 21  1  0  0  0
 21 22  2  0  0  0
 10  2  1  0  0  0
 22 14  1  0  0  0
 10  6  2  0  0  0
 21 17  1  0  0  0
 35 30  1  0  0  0
  1 13  1  0  0  0
 27 28  1  0  0  0
M  END
> <minimizedAffinity>
16.81308

> <CNNscore>
0.4450497031

> <CNNaffinity>
7.5682625771

> <CNN_VS>
3.3682529926

> <CNNaffinity_variance>
1.6140655279

$$$$
[H]Oc1c([H])c([H])c([H])c2c1c(C([H])([H])C([H])([H])C(=O)N([H])C([H])([H])C1([H])C([H])([H])C([H])([H])OC([H])([H])C1([H])[H])c([H])n2C(=O)c1c([H])c([H])c2c(c1[H])C([H])([H])C([H])([H])O2


 35 39  0  0  0  0  0  0  0  0999 V2000
   10.1574   46.7251  125.9377 O   0  0  0  0  0  0  0  0  0  0  0  0
    9.9517   45.5121  126.5052 C   0  0  0  0  0  0  0  0  0  0  0  0
    9.6149   44.4266  125.6615 C   0  0  0  0  0  0  0  0  0  0  0  0
    9.4026   43.1921  126.1796 C   0  0  0  0  0  0  0  0  0  0  0  0
    9.5090   42.9511  127.5568 C   0  0  0  0  0  0  0  0  0  0  0  0
    9.8335   43.9979  128.3714 C   0  0  0  0  0  0  0  0  0  0  0  0
   10.0106   44.0572  129.7186 N   0  0  0  0  0  0  0  0  0  0  0  0
   10.3288   45.3125  130.0586 C   0  0  0  0  0  0  0  0  0  0  0  0
   10.3679   46.1213  128.9107 C   0  0  0  0  0  0  0  0  0  0  0  0
   10.0581   45.2831  127.8715 C   0  0  0  0  0  0  0  0  0  0  0  0
    9.8845   42.9292  130.5774 C   0  0  0  0  0  0  0  0  0  0  0  0
    9.5571   41.7739  130.1873 O   0  0  0  0  0  0  0  0  0  0  0  0
   10.3816   47.6185  126.1178 H   0  0  0  0  0  0  0  0  0  0  0  0
   10.1317   43.0337  132.0129 C   0  0  0  0  0  0  0  0  0  0  0  0
    9.1680   42.6762  132.9330 C   0  0  0  0  0  0  0  0  0  0  0  0
    9.4276   42.7483  134.2870 C   0  0  0  0  0  0  0  0  0  0  0  0
   10.6674   43.1834  134.7465 C   0  0  0  0  0  0  0  0  0  0  0  0
   11.1078   43.3213  136.0451 O   0  0  0  0  0  0  0  0  0  0  0  0
   12.5040   43.5407  136.0081 C   0  0  0  0  0  0  0  0  0  0  0  0
   12.8208   43.9575  134.5892 C   0  0  0  0  0  0  0  0  0  0  0  0
   11.6140   43.5344  133.8341 C   0  0  0  0  0  0  0  0  0  0  0  0
   11.3431   43.4578  132.4726 C   0  0  0  0  0  0  0  0  0  0  0  0
   10.6460   47.5701  128.8975 C   0  0  0  0  0  0  0  0  0  0  0  0
    9.3043   48.2979  128.8953 C   0  0  0  0  0  0  0  0  0  0  0  0
    8.7317   48.3875  130.2473 C   0  0  0  0  0  0  0  0  0  0  0  0
    8.6749   49.5002  130.8054 O   0  0  0  0  0  0  0  0  0  0  0  0
    8.2612   47.2281  130.8863 N   0  0  0  0  0  0  0  0  0  0  0  0
    8.3280   46.3023  130.3806 H   0  0  0  0  0  0  0  0  0  0  0  0
    7.6931   47.2519  132.1977 C   0  0  0  0  0  0  0  0  0  0  0  0
    8.7646   47.2748  133.2350 C   0  0  0  0  0  0  0  0  0  0  0  0
    8.4883   46.1909  134.2849 C   0  0  0  0  0  0  0  0  0  0  0  0
    9.5283   46.3959  135.3731 C   0  0  0  0  0  0  0  0  0  0  0  0
   10.5535   47.2480  134.9736 O   0  0  0  0  0  0  0  0  0  0  0  0
   11.1135   46.8811  133.7691 C   0  0  0  0  0  0  0  0  0  0  0  0
   10.1192   46.8534  132.6286 C   0  0  0  0  0  0  0  0  0  0  0  0
  1  2  1  0  0  0
  2  3  2  0  0  0
  3  4  1  0  0  0
  4  5  2  0  0  0
  5  6  1  0  0  0
  6  7  1  0  0  0
  7  8  1  0  0  0
  8  9  2  0  0  0
  9 23  1  0  0  0
 23 24  1  0  0  0
 24 25  1  0  0  0
 25 26  2  0  0  0
 25 27  1  0  0  0
 27 29  1  0  0  0
 29 30  1  0  0  0
 30 31  1  0  0  0
 31 32  1  0  0  0
 32 33  1  0  0  0
 33 34  1  0  0  0
 34 35  1  0  0  0
  9 10  1  0  0  0
  7 11  1  0  0  0
 11 12  2  0  0  0
 11 14  1  0  0  0
 14 15  2  0  0  0
 15 16  1  0  0  0
 16 17  2  0  0  0
 17 18  1  0  0  0
 18 19  1  0  0  0
 19 20  1  0  0  0
 20 21  1  0  0  0
 21 22  2  0  0  0
 10  2  1  0  0  0
 22 14  1  0  0  0
 10  6  2  0  0  0
 21 17  1  0  0  0
 35 30  1  0  0  0
  1 13  1  0  0  0
 27 28  1  0  0  0
M  END
> <minimizedAffinity>
14.20702

> <CNNscore>
0.4316550791

> <CNNaffinity>
7.4281768799

> <CNN_VS>
3.2064101696

> <CNNaffinity_variance>
0.5890417099

$$$$
[H]Oc1c([H])c([H])c([H])c2c1c(C([H])([H])C([H])([H])C(=O)N([H])C([H])([H])C1([H])C([H])([H])C([H])([H])OC([H])([H])C1([H])[H])c([H])n2C(=O)c1c([H])c([H])c2c(c1[H])C([H])([H])C([H])([H])O2


 35 39  0  0  0  0  0  0  0  0999 V2000
    8.5382   49.3048  134.9056 O   0  0  0  0  0  0  0  0  0  0  0  0
    8.8907   49.3603  133.5984 C   0  0  0  0  0  0  0  0  0  0  0  0
    9.1537   50.6293  133.0293 C   0  0  0  0  0  0  0  0  0  0  0  0
    9.5134   50.7385  131.7269 C   0  0  0  0  0  0  0  0  0  0  0  0
    9.6363   49.6075  130.9071 C   0  0  0  0  0  0  0  0  0  0  0  0
    9.3823   48.3830  131.4555 C   0  0  0  0  0  0  0  0  0  0  0  0
    9.4287   47.1367  130.9130 N   0  0  0  0  0  0  0  0  0  0  0  0
    9.1004   46.2425  131.8540 C   0  0  0  0  0  0  0  0  0  0  0  0
    8.8258   46.9027  133.0631 C   0  0  0  0  0  0  0  0  0  0  0  0
    9.0086   48.2340  132.7934 C   0  0  0  0  0  0  0  0  0  0  0  0
    9.7938   46.8819  129.5611 C   0  0  0  0  0  0  0  0  0  0  0  0
   10.0702   47.7816  128.7195 O   0  0  0  0  0  0  0  0  0  0  0  0
    8.3063   48.7230  135.6045 H   0  0  0  0  0  0  0  0  0  0  0  0
    9.8754   45.5209  129.0380 C   0  0  0  0  0  0  0  0  0  0  0  0
   10.5142   45.2495  127.8457 C   0  0  0  0  0  0  0  0  0  0  0  0
   10.6130   43.9536  127.3802 C   0  0  0  0  0  0  0  0  0  0  0  0
   10.0691   42.8983  128.1069 C   0  0  0  0  0  0  0  0  0  0  0  0
   10.0675   41.5532  127.8075 O   0  0  0  0  0  0  0  0  0  0  0  0
    9.6336   40.8538  128.9570 C   0  0  0  0  0  0  0  0  0  0  0  0
    8.9592   41.8819  129.8378 C   0  0  0  0  0  0  0  0  0  0  0  0
    9.4407   43.1723  129.2824 C   0  0  0  0  0  0  0  0  0  0  0  0
    9.3468   44.4807  129.7431 C   0  0  0  0  0  0  0  0  0  0  0  0
    8.3929   46.2486  134.3126 C   0  0  0  0  0  0  0  0  0  0  0  0
    9.0396   44.8668  134.3587 C   0  0  0  0  0  0  0  0  0  0  0  0
   10.4984   44.9427  134.1851 C   0  0  0  0  0  0  0  0  0  0  0  0
   11.1109   43.9348  133.7830 O   0  0  0  0  0  0  0  0  0  0  0  0
   11.1761   46.1394  134.4729 N   0  0  0  0  0  0  0  0  0  0  0  0
   10.6215   46.9723  134.8133 H   0  0  0  0  0  0  0  0  0  0  0  0
   12.5910   46.2749  134.3221 C   0  0  0  0  0  0  0  0  0  0  0  0
   13.1623   47.0937  135.4302 C   0  0  0  0  0  0  0  0  0  0  0  0
   14.6821   47.2078  135.2555 C   0  0  0  0  0  0  0  0  0  0  0  0
   15.1890   47.9117  136.5027 C   0  0  0  0  0  0  0  0  0  0  0  0
   14.1605   48.4890  137.2414 O   0  0  0  0  0  0  0  0  0  0  0  0
   13.3403   49.2910  136.4779 C   0  0  0  0  0  0  0  0  0  0  0  0
   12.6769   48.5550  135.3341 C   0  0  0  0  0  0  0  0  0  0  0  0
  1  2  1  0  0  0
  2  3  2  0  0  0
  3  4  1  0  0  0
  4  5  2  0  0  0
  5  6  1  0  0  0
  6  7  1  0  0  0
  7  8  1  0  0  0
  8  9  2  0  0  0
  9 23  1  0  0  0
 23 24  1  0  0  0
 24 25  1  0  0  0
 25 26  2  0  0  0
 25 27  1  0  0  0
 27 29  1  0  0  0
 29 30  1  0  0  0
 30 31  1  0  0  0
 31 32  1  0  0  0
 32 33  1  0  0  0
 33 34  1  0  0  0
 34 35  1  0  0  0
  9 10  1  0  0  0
  7 11  1  0  0  0
 11 12  2  0  0  0
 11 14  1  0  0  0
 14 15  2  0  0  0
 15 16  1  0  0  0
 16 17  2  0  0  0
 17 18  1  0  0  0
 18 19  1  0  0  0
 19 20  1  0  0  0
 20 21  1  0  0  0
 21 22  2  0  0  0
 10  2  1  0  0  0
 22 14  1  0  0  0
 10  6  2  0  0  0
 21 17  1  0  0  0
 35 30  1  0  0  0
  1 13  1  0  0  0
 27 28  1  0  0  0
M  END
> <minimizedAffinity>
17.23878

> <CNNscore>
0.4297945201

> <CNNaffinity>
7.2483015060

> <CNN_VS>
3.1152801514

> <CNNaffinity_variance>
1.1290881634

$$$$
[H]Oc1c([H])c([H])c([H])c2c1c(C([H])([H])C([H])([H])C(=O)N([H])C([H])([H])C1([H])C([H])([H])C([H])([H])OC([H])([H])C1([H])[H])c([H])n2C(=O)c1c([H])c([H])c2c(c1[H])C([H])([H])C([H])([H])O2


 35 39  0  0  0  0  0  0  0  0999 V2000
   10.7854   47.2061  127.0260 O   0  0  0  0  0  0  0  0  0  0  0  0
   10.4591   46.0836  127.7112 C   0  0  0  0  0  0  0  0  0  0  0  0
   10.1169   44.9249  126.9738 C   0  0  0  0  0  0  0  0  0  0  0  0
    9.7864   43.7754  127.6119 C   0  0  0  0  0  0  0  0  0  0  0  0
    9.7730   43.6965  129.0118 C   0  0  0  0  0  0  0  0  0  0  0  0
   10.1027   44.8142  129.7238 C   0  0  0  0  0  0  0  0  0  0  0  0
   10.1814   45.0253  131.0650 N   0  0  0  0  0  0  0  0  0  0  0  0
   10.5541   46.2927  131.2827 C   0  0  0  0  0  0  0  0  0  0  0  0
   10.7319   46.9540  130.0561 C   0  0  0  0  0  0  0  0  0  0  0  0
   10.4473   46.0153  129.0989 C   0  0  0  0  0  0  0  0  0  0  0  0
    9.9180   44.0177  132.0352 C   0  0  0  0  0  0  0  0  0  0  0  0
    9.5464   42.8438  131.7557 O   0  0  0  0  0  0  0  0  0  0  0  0
   11.0529   48.1008  127.1194 H   0  0  0  0  0  0  0  0  0  0  0  0
   10.0629   44.2804  133.4644 C   0  0  0  0  0  0  0  0  0  0  0  0
    9.3232   45.2626  134.0901 C   0  0  0  0  0  0  0  0  0  0  0  0
    9.4458   45.4772  135.4483 C   0  0  0  0  0  0  0  0  0  0  0  0
   10.3188   44.7053  136.2097 C   0  0  0  0  0  0  0  0  0  0  0  0
   10.5750   44.7708  137.5621 O   0  0  0  0  0  0  0  0  0  0  0  0
   11.3284   43.6281  137.9163 C   0  0  0  0  0  0  0  0  0  0  0  0
   11.8842   43.0801  136.6209 C   0  0  0  0  0  0  0  0  0  0  0  0
   11.0453   43.7378  135.5869 C   0  0  0  0  0  0  0  0  0  0  0  0
   10.9144   43.5290  134.2186 C   0  0  0  0  0  0  0  0  0  0  0  0
   11.1038   48.3729  129.8983 C   0  0  0  0  0  0  0  0  0  0  0  0
   10.6382   49.1142  131.1488 C   0  0  0  0  0  0  0  0  0  0  0  0
    9.1999   49.4185  131.0970 C   0  0  0  0  0  0  0  0  0  0  0  0
    8.4848   49.1191  132.0726 O   0  0  0  0  0  0  0  0  0  0  0  0
    8.6559   50.0363  129.9584 N   0  0  0  0  0  0  0  0  0  0  0  0
    9.2948   50.2734  129.1504 H   0  0  0  0  0  0  0  0  0  0  0  0
    7.2675   50.3584  129.8501 C   0  0  0  0  0  0  0  0  0  0  0  0
    6.4437   49.1174  129.7744 C   0  0  0  0  0  0  0  0  0  0  0  0
    5.0467   49.4584  129.2401 C   0  0  0  0  0  0  0  0  0  0  0  0
    4.2384   48.1769  129.3512 C   0  0  0  0  0  0  0  0  0  0  0  0
    5.0384   47.0642  129.5931 O   0  0  0  0  0  0  0  0  0  0  0  0
    6.0837   46.9546  128.7020 C   0  0  0  0  0  0  0  0  0  0  0  0
    7.0102   48.1511  128.7136 C   0  0  0  0  0  0  0  0  0  0  0  0
  1  2  1  0  0  0
  2  3  2  0  0  0
  3  4  1  0  0  0
  4  5  2  0  0  0
  5  6  1  0  0  0
  6  7  1  0  0  0
  7  8  1  0  0  0
  8  9  2  0  0  0
  9 23  1  0  0  0
 23 24  1  0  0  0
 24 25  1  0  0  0
 25 26  2  0  0  0
 25 27  1  0  0  0
 27 29  1  0  0  0
 29 30  1  0  0  0
 30 31  1  0  0  0
 31 32  1  0  0  0
 32 33  1  0  0  0
 33 34  1  0  0  0
 34 35  1  0  0  0
  9 10  1  0  0  0
  7 11  1  0  0  0
 11 12  2  0  0  0
 11 14  1  0  0  0
 14 15  2  0  0  0
 15 16  1  0  0  0
 16 17  2  0  0  0
 17 18  1  0  0  0
 18 19  1  0  0  0
 19 20  1  0  0  0
 20 21  1  0  0  0
 21 22  2  0  0  0
 10  2  1  0  0  0
 22 14  1  0  0  0
 10  6  2  0  0  0
 21 17  1  0  0  0
 35 30  1  0  0  0
  1 13  1  0  0  0
 27 28  1  0  0  0
M  END
> <minimizedAffinity>
11.90880

> <CNNscore>
0.4297037125

> <CNNaffinity>
7.4416937828

> <CNN_VS>
3.1977233887

> <CNNaffinity_variance>
1.0352600813

$$$$
[H]Oc1c([H])c([H])c([H])c2c1c(C([H])([H])C([H])([H])C(=O)N([H])C([H])([H])C1([H])C([H])([H])C([H])([H])OC([H])([H])C1([H])[H])c([H])n2C(=O)c1c([H])c([H])c2c(c1[H])C([H])([H])C([H])([H])O2


 35 39  0  0  0  0  0  0  0  0999 V2000
   10.9235   48.9762  135.3377 O   0  0  0  0  0  0  0  0  0  0  0  0
   10.4639   47.7081  135.2091 C   0  0  0  0  0  0  0  0  0  0  0  0
   10.1099   47.0020  136.3836 C   0  0  0  0  0  0  0  0  0  0  0  0
    9.6415   45.7321  136.3086 C   0  0  0  0  0  0  0  0  0  0  0  0
    9.4930   45.0813  135.0754 C   0  0  0  0  0  0  0  0  0  0  0  0
    9.8347   45.7619  133.9420 C   0  0  0  0  0  0  0  0  0  0  0  0
    9.7891   45.3936  132.6335 N   0  0  0  0  0  0  0  0  0  0  0  0
   10.2250   46.4122  131.8816 C   0  0  0  0  0  0  0  0  0  0  0  0
   10.5733   47.4963  132.7043 C   0  0  0  0  0  0  0  0  0  0  0  0
   10.3213   47.0709  133.9826 C   0  0  0  0  0  0  0  0  0  0  0  0
    9.3244   44.1231  132.1912 C   0  0  0  0  0  0  0  0  0  0  0  0
    8.9482   43.1975  132.9631 O   0  0  0  0  0  0  0  0  0  0  0  0
   11.2324   49.7230  134.8605 H   0  0  0  0  0  0  0  0  0  0  0  0
    9.2495   43.7920  130.7709 C   0  0  0  0  0  0  0  0  0  0  0  0
    8.7800   44.7031  129.8474 C   0  0  0  0  0  0  0  0  0  0  0  0
    8.7464   44.3883  128.5036 C   0  0  0  0  0  0  0  0  0  0  0  0
    9.1863   43.1451  128.0580 C   0  0  0  0  0  0  0  0  0  0  0  0
    9.2288   42.6541  126.7710 O   0  0  0  0  0  0  0  0  0  0  0  0
    9.9875   41.4612  126.7872 C   0  0  0  0  0  0  0  0  0  0  0  0
   10.0429   41.0247  128.2342 C   0  0  0  0  0  0  0  0  0  0  0  0
    9.6486   42.2509  128.9735 C   0  0  0  0  0  0  0  0  0  0  0  0
    9.6789   42.5775  130.3246 C   0  0  0  0  0  0  0  0  0  0  0  0
   11.1298   48.7792  132.2342 C   0  0  0  0  0  0  0  0  0  0  0  0
    9.9938   49.7986  132.2220 C   0  0  0  0  0  0  0  0  0  0  0  0
    9.3949   49.9298  130.8848 C   0  0  0  0  0  0  0  0  0  0  0  0
   10.0633   49.5917  129.8890 O   0  0  0  0  0  0  0  0  0  0  0  0
    8.0892   50.4307  130.7489 N   0  0  0  0  0  0  0  0  0  0  0  0
    7.5547   50.7082  131.6175 H   0  0  0  0  0  0  0  0  0  0  0  0
    7.4533   50.5794  129.4775 C   0  0  0  0  0  0  0  0  0  0  0  0
    6.7135   49.3373  129.1106 C   0  0  0  0  0  0  0  0  0  0  0  0
    7.3254   48.1375  129.8450 C   0  0  0  0  0  0  0  0  0  0  0  0
    6.6208   46.9112  129.2904 C   0  0  0  0  0  0  0  0  0  0  0  0
    5.4835   47.2384  128.5581 O   0  0  0  0  0  0  0  0  0  0  0  0
    4.6292   48.0741  129.2441 C   0  0  0  0  0  0  0  0  0  0  0  0
    5.2665   49.3874  129.6433 C   0  0  0  0  0  0  0  0  0  0  0  0
  1  2  1  0  0  0
  2  3  2  0  0  0
  3  4  1  0  0  0
  4  5  2  0  0  0
  5  6  1  0  0  0
  6  7  1  0  0  0
  7  8  1  0  0  0
  8  9  2  0  0  0
  9 23  1  0  0  0
 23 24  1  0  0  0
 24 25  1  0  0  0
 25 26  2  0  0  0
 25 27  1  0  0  0
 27 29  1  0  0  0
 29 30  1  0  0  0
 30 31  1  0  0  0
 31 32  1  0  0  0
 32 33  1  0  0  0
 33 34  1  0  0  0
 34 35  1  0  0  0
  9 10  1  0  0  0
  7 11  1  0  0  0
 11 12  2  0  0  0
 11 14  1  0  0  0
 14 15  2  0  0  0
 15 16  1  0  0  0
 16 17  2  0  0  0
 17 18  1  0  0  0
 18 19  1  0  0  0
 19 20  1  0  0  0
 20 21  1  0  0  0
 21 22  2  0  0  0
 10  2  1  0  0  0
 22 14  1  0  0  0
 10  6  2  0  0  0
 21 17  1  0  0  0
 35 30  1  0  0  0
  1 13  1  0  0  0
 27 28  1  0  0  0
M  END
> <minimizedAffinity>
11.13890

> <CNNscore>
0.4106015861

> <CNNaffinity>
7.4035592079

> <CNN_VS>
3.0399131775

> <CNNaffinity_variance>
0.8667417765

$$$$
[H]Oc1c([H])c([H])c([H])c2c1c(C([H])([H])C([H])([H])C(=O)N([H])C([H])([H])C1([H])C([H])([H])C([H])([H])OC([H])([H])C1([H])[H])c([H])n2C(=O)c1c([H])c([H])c2c(c1[H])C([H])([H])C([H])([H])O2


 35 39  0  0  0  0  0  0  0  0999 V2000
    7.8954   49.0224  135.1931 O   0  0  0  0  0  0  0  0  0  0  0  0
    8.1173   47.7244  134.8738 C   0  0  0  0  0  0  0  0  0  0  0  0
    7.2800   46.7403  135.4516 C   0  0  0  0  0  0  0  0  0  0  0  0
    7.4583   45.4282  135.1616 C   0  0  0  0  0  0  0  0  0  0  0  0
    8.4693   45.0056  134.2867 C   0  0  0  0  0  0  0  0  0  0  0  0
    9.2776   45.9546  133.7291 C   0  0  0  0  0  0  0  0  0  0  0  0
   10.3147   45.8409  132.8565 N   0  0  0  0  0  0  0  0  0  0  0  0
   10.7955   47.0626  132.5940 C   0  0  0  0  0  0  0  0  0  0  0  0
   10.0633   48.0259  133.3077 C   0  0  0  0  0  0  0  0  0  0  0  0
    9.1227   47.3151  134.0065 C   0  0  0  0  0  0  0  0  0  0  0  0
   10.7610   44.5982  132.3251 C   0  0  0  0  0  0  0  0  0  0  0  0
   10.2721   43.4767  132.6374 O   0  0  0  0  0  0  0  0  0  0  0  0
    8.1879   49.9013  135.0419 H   0  0  0  0  0  0  0  0  0  0  0  0
   11.8490   44.5325  131.3532 C   0  0  0  0  0  0  0  0  0  0  0  0
   13.1679   44.6172  131.7487 C   0  0  0  0  0  0  0  0  0  0  0  0
   14.1872   44.5197  130.8226 C   0  0  0  0  0  0  0  0  0  0  0  0
   13.9004   44.3340  129.4732 C   0  0  0  0  0  0  0  0  0  0  0  0
   14.7726   44.2155  128.4129 O   0  0  0  0  0  0  0  0  0  0  0  0
   14.0320   43.7833  127.2888 C   0  0  0  0  0  0  0  0  0  0  0  0
   12.5816   44.0595  127.6168 C   0  0  0  0  0  0  0  0  0  0  0  0
   12.5976   44.2508  129.0894 C   0  0  0  0  0  0  0  0  0  0  0  0
   11.5782   44.3497  130.0296 C   0  0  0  0  0  0  0  0  0  0  0  0
   10.3288   49.4771  133.2996 C   0  0  0  0  0  0  0  0  0  0  0  0
    9.4458   50.1021  132.2228 C   0  0  0  0  0  0  0  0  0  0  0  0
    9.5324   49.3652  130.9527 C   0  0  0  0  0  0  0  0  0  0  0  0
   10.4667   49.6221  130.1692 O   0  0  0  0  0  0  0  0  0  0  0  0
    8.5693   48.3907  130.6418 N   0  0  0  0  0  0  0  0  0  0  0  0
    7.7909   48.2023  131.3317 H   0  0  0  0  0  0  0  0  0  0  0  0
    8.6015   47.6410  129.4253 C   0  0  0  0  0  0  0  0  0  0  0  0
    8.6611   46.1782  129.7099 C   0  0  0  0  0  0  0  0  0  0  0  0
    7.3710   45.7373  130.4131 C   0  0  0  0  0  0  0  0  0  0  0  0
    7.5896   44.2857  130.8042 C   0  0  0  0  0  0  0  0  0  0  0  0
    8.6971   43.7271  130.1731 O   0  0  0  0  0  0  0  0  0  0  0  0
    8.6818   43.9104  128.8074 C   0  0  0  0  0  0  0  0  0  0  0  0
    8.6526   45.3669  128.3977 C   0  0  0  0  0  0  0  0  0  0  0  0
  1  2  1  0  0  0
  2  3  2  0  0  0
  3  4  1  0  0  0
  4  5  2  0  0  0
  5  6  1  0  0  0
  6  7  1  0  0  0
  7  8  1  0  0  0
  8  9  2  0  0  0
  9 23  1  0  0  0
 23 24  1  0  0  0
 24 25  1  0  0  0
 25 26  2  0  0  0
 25 27  1  0  0  0
 27 29  1  0  0  0
 29 30  1  0  0  0
 30 31  1  0  0  0
 31 32  1  0  0  0
 32 33  1  0  0  0
 33 34  1  0  0  0
 34 35  1  0  0  0
  9 10  1  0  0  0
  7 11  1  0  0  0
 11 12  2  0  0  0
 11 14  1  0  0  0
 14 15  2  0  0  0
 15 16  1  0  0  0
 16 17  2  0  0  0
 17 18  1  0  0  0
 18 19  1  0  0  0
 19 20  1  0  0  0
 20 21  1  0  0  0
 21 22  2  0  0  0
 10  2  1  0  0  0
 22 14  1  0  0  0
 10  6  2  0  0  0
 21 17  1  0  0  0
 35 30  1  0  0  0
  1 13  1  0  0  0
 27 28  1  0  0  0
M  END
> <minimizedAffinity>
11.02390

> <CNNscore>
0.3955850899

> <CNNaffinity>
7.3081884384

> <CNN_VS>
2.8910102844

> <CNNaffinity_variance>
0.7159217596

$$$$
[H]Oc1c([H])c([H])c([H])c2c1c(C([H])([H])C([H])([H])C(=O)N([H])C([H])([H])C1([H])C([H])([H])C([H])([H])OC([H])([H])C1([H])[H])c([H])n2C(=O)c1c([H])c([H])c2c(c1[H])C([H])([H])C([H])([H])O2


 35 39  0  0  0  0  0  0  0  0999 V2000
    8.2038   47.8851  135.6610 O   0  0  0  0  0  0  0  0  0  0  0  0
    8.2124   46.7680  134.8942 C   0  0  0  0  0  0  0  0  0  0  0  0
    7.1047   45.8907  134.9769 C   0  0  0  0  0  0  0  0  0  0  0  0
    7.0633   44.7617  134.2277 C   0  0  0  0  0  0  0  0  0  0  0  0
    8.1073   44.4283  133.3531 C   0  0  0  0  0  0  0  0  0  0  0  0
    9.1765   45.2741  133.2732 C   0  0  0  0  0  0  0  0  0  0  0  0
   10.3075   45.2120  132.5204 N   0  0  0  0  0  0  0  0  0  0  0  0
   11.0637   46.2845  132.7860 C   0  0  0  0  0  0  0  0  0  0  0  0
   10.4260   47.0916  133.7427 C   0  0  0  0  0  0  0  0  0  0  0  0
    9.2523   46.4452  134.0312 C   0  0  0  0  0  0  0  0  0  0  0  0
   10.5811   44.1617  131.5996 C   0  0  0  0  0  0  0  0  0  0  0  0
    9.8285   43.1645  131.4171 O   0  0  0  0  0  0  0  0  0  0  0  0
    8.6896   48.6570  135.8820 H   0  0  0  0  0  0  0  0  0  0  0  0
   11.7886   44.1646  130.7782 C   0  0  0  0  0  0  0  0  0  0  0  0
   13.0340   44.3639  131.3372 C   0  0  0  0  0  0  0  0  0  0  0  0
   14.1699   44.3304  130.5534 C   0  0  0  0  0  0  0  0  0  0  0  0
   14.0772   44.0947  129.1847 C   0  0  0  0  0  0  0  0  0  0  0  0
   15.0870   44.0257  128.2495 O   0  0  0  0  0  0  0  0  0  0  0  0
   14.5355   43.5122  127.0533 C   0  0  0  0  0  0  0  0  0  0  0  0
   13.0377   43.6766  127.1833 C   0  0  0  0  0  0  0  0  0  0  0  0
   12.8461   43.8985  128.6392 C   0  0  0  0  0  0  0  0  0  0  0  0
   11.7080   43.9336  129.4370 C   0  0  0  0  0  0  0  0  0  0  0  0
   10.9758   48.3374  134.3103 C   0  0  0  0  0  0  0  0  0  0  0  0
   10.3375   49.5060  133.5642 C   0  0  0  0  0  0  0  0  0  0  0  0
    9.9628   49.1352  132.1909 C   0  0  0  0  0  0  0  0  0  0  0  0
   10.6916   49.4995  131.2480 O   0  0  0  0  0  0  0  0  0  0  0  0
    8.7986   48.3828  131.9620 N   0  0  0  0  0  0  0  0  0  0  0  0
    8.2055   48.0939  132.7879 H   0  0  0  0  0  0  0  0  0  0  0  0
    8.3839   47.9908  130.6515 C   0  0  0  0  0  0  0  0  0  0  0  0
    7.8923   49.1692  129.8806 C   0  0  0  0  0  0  0  0  0  0  0  0
    7.1944   48.6924  128.6004 C   0  0  0  0  0  0  0  0  0  0  0  0
    6.8761   49.9507  127.8110 C   0  0  0  0  0  0  0  0  0  0  0  0
    7.0173   51.1059  128.5741 O   0  0  0  0  0  0  0  0  0  0  0  0
    6.3328   51.0435  129.7684 C   0  0  0  0  0  0  0  0  0  0  0  0
    6.7724   49.8970  130.6529 C   0  0  0  0  0  0  0  0  0  0  0  0
  1  2  1  0  0  0
  2  3  2  0  0  0
  3  4  1  0  0  0
  4  5  2  0  0  0
  5  6  1  0  0  0
  6  7  1  0  0  0
  7  8  1  0  0  0
  8  9  2  0  0  0
  9 23  1  0  0  0
 23 24  1  0  0  0
 24 25  1  0  0  0
 25 26  2  0  0  0
 25 27  1  0  0  0
 27 29  1  0  0  0
 29 30  1  0  0  0
 30 31  1  0  0  0
 31 32  1  0  0  0
 32 33  1  0  0  0
 33 34  1  0  0  0
 34 35  1  0  0  0
  9 10  1  0  0  0
  7 11  1  0  0  0
 11 12  2  0  0  0
 11 14  1  0  0  0
 14 15  2  0  0  0
 15 16  1  0  0  0
 16 17  2  0  0  0
 17 18  1  0  0  0
 18 19  1  0  0  0
 19 20  1  0  0  0
 20 21  1  0  0  0
 21 22  2  0  0  0
 10  2  1  0  0  0
 22 14  1  0  0  0
 10  6  2  0  0  0
 21 17  1  0  0  0
 35 30  1  0  0  0
  1 13  1  0  0  0
 27 28  1  0  0  0
M  END
> <minimizedAffinity>
13.25581

> <CNNscore>
0.3819958866

> <CNNaffinity>
7.3410501480

> <CNN_VS>
2.8042509556

> <CNNaffinity_variance>
1.0814956427

$$$$
[H]Oc1c([H])c([H])c([H])c2c1c(C([H])([H])C([H])([H])C(=O)N([H])C([H])([H])C1([H])C([H])([H])C([H])([H])OC([H])([H])C1([H])[H])c([H])n2C(=O)c1c([H])c([H])c2c(c1[H])C([H])([H])C([H])([H])O2


 35 39  0  0  0  0  0  0  0  0999 V2000
    7.5777   46.8444  135.3466 O   0  0  0  0  0  0  0  0  0  0  0  0
    7.7867   45.6936  134.6627 C   0  0  0  0  0  0  0  0  0  0  0  0
    6.9881   44.5699  134.9832 C   0  0  0  0  0  0  0  0  0  0  0  0
    7.1553   43.3963  134.3255 C   0  0  0  0  0  0  0  0  0  0  0  0
    8.1166   43.2578  133.3142 C   0  0  0  0  0  0  0  0  0  0  0  0
    8.8877   44.3415  133.0048 C   0  0  0  0  0  0  0  0  0  0  0  0
    9.8739   44.4990  132.0815 N   0  0  0  0  0  0  0  0  0  0  0  0
   10.3336   45.7548  132.1491 C   0  0  0  0  0  0  0  0  0  0  0  0
    9.6391   46.4631  133.1437 C   0  0  0  0  0  0  0  0  0  0  0  0
    8.7429   45.5654  133.6627 C   0  0  0  0  0  0  0  0  0  0  0  0
   10.2946   43.4655  131.1979 C   0  0  0  0  0  0  0  0  0  0  0  0
    9.8292   42.2919  131.2067 O   0  0  0  0  0  0  0  0  0  0  0  0
    7.8573   47.7360  135.4343 H   0  0  0  0  0  0  0  0  0  0  0  0
   11.3257   43.6981  130.1903 C   0  0  0  0  0  0  0  0  0  0  0  0
   10.9978   43.9226  128.8692 C   0  0  0  0  0  0  0  0  0  0  0  0
   11.9813   44.1745  127.9337 C   0  0  0  0  0  0  0  0  0  0  0  0
   13.3215   44.2063  128.3085 C   0  0  0  0  0  0  0  0  0  0  0  0
   14.4321   44.4387  127.5265 O   0  0  0  0  0  0  0  0  0  0  0  0
   15.5368   44.6287  128.3881 C   0  0  0  0  0  0  0  0  0  0  0  0
   15.1166   44.0717  129.7299 C   0  0  0  0  0  0  0  0  0  0  0  0
   13.6386   43.9846  129.6131 C   0  0  0  0  0  0  0  0  0  0  0  0
   12.6409   43.7322  130.5479 C   0  0  0  0  0  0  0  0  0  0  0  0
    9.8973   47.8630  133.5313 C   0  0  0  0  0  0  0  0  0  0  0  0
   10.3541   48.6115  132.2819 C   0  0  0  0  0  0  0  0  0  0  0  0
    9.8149   49.9794  132.2396 C   0  0  0  0  0  0  0  0  0  0  0  0
    9.3701   50.4190  131.1617 O   0  0  0  0  0  0  0  0  0  0  0  0
    9.8091   50.7658  133.4039 N   0  0  0  0  0  0  0  0  0  0  0  0
   10.1966   50.3579  134.2987 H   0  0  0  0  0  0  0  0  0  0  0  0
    9.2971   52.1002  133.4257 C   0  0  0  0  0  0  0  0  0  0  0  0
    9.2746   52.6325  134.8187 C   0  0  0  0  0  0  0  0  0  0  0  0
   10.2399   53.8194  134.9322 C   0  0  0  0  0  0  0  0  0  0  0  0
   10.2710   54.1864  136.4061 C   0  0  0  0  0  0  0  0  0  0  0  0
    9.2433   53.5832  137.1250 O   0  0  0  0  0  0  0  0  0  0  0  0
    8.0046   53.7844  136.5559 C   0  0  0  0  0  0  0  0  0  0  0  0
    7.8997   53.2527  135.1429 C   0  0  0  0  0  0  0  0  0  0  0  0
  1  2  1  0  0  0
  2  3  2  0  0  0
  3  4  1  0  0  0
  4  5  2  0  0  0
  5  6  1  0  0  0
  6  7  1  0  0  0
  7  8  1  0  0  0
  8  9  2  0  0  0
  9 23  1  0  0  0
 23 24  1  0  0  0
 24 25  1  0  0  0
 25 26  2  0  0  0
 25 27  1  0  0  0
 27 29  1  0  0  0
 29 30  1  0  0  0
 30 31  1  0  0  0
 31 32  1  0  0  0
 32 33  1  0  0  0
 33 34  1  0  0  0
 34 35  1  0  0  0
  9 10  1  0  0  0
  7 11  1  0  0  0
 11 12  2  0  0  0
 11 14  1  0  0  0
 14 15  2  0  0  0
 15 16  1  0  0  0
 16 17  2  0  0  0
 17 18  1  0  0  0
 18 19  1  0  0  0
 19 20  1  0  0  0
 20 21  1  0  0  0
 21 22  2  0  0  0
 10  2  1  0  0  0
 22 14  1  0  0  0
 10  6  2  0  0  0
 21 17  1  0  0  0
 35 30  1  0  0  0
  1 13  1  0  0  0
 27 28  1  0  0  0
M  END
> <minimizedAffinity>
37.03709

> <CNNscore>
0.3813984096

> <CNNaffinity>
6.9637899399

> <CNN_VS>
2.6559784412

> <CNNaffinity_variance>
1.8719555140

$$$$
[H]Oc1c([H])c([H])c(C([H])([H])[C@@]([H])(C(=O)N([H])[C@]([H])(C(=O)N([H])[C@]([H])(C(=O)N([H])[H])C([H])([H])c2c([H])c([H])c([H])c([H])c2[H])C([H])([H])C([H])(C([H])([H])[H])C([H])([H])[H])N([H])[H])c([H])c1[H]


 39 40  0  0  0  0  0  0  0  0999 V2000
   11.6062   43.2968  130.4842 C   0  0  0  0  0  0  0  0  0  0  0  0
   10.5367   43.8976  129.6492 N   0  0  0  0  0  0  0  0  0  0  0  0
   10.2337   45.2644  129.8380 C   0  0  0  0  0  0  0  0  0  0  0  0
   10.8839   45.9024  130.7055 O   0  0  0  0  0  0  0  0  0  0  0  0
   10.0285   43.3340  128.9501 H   0  0  0  0  0  0  0  0  0  0  0  0
    9.1821   45.9422  129.0448 C   0  0  0  0  0  0  0  0  0  0  0  0
    7.8775   45.5049  129.5994 N   0  0  0  0  0  0  0  0  0  0  0  0
    7.7514   45.9249  130.5465 H   0  0  0  0  0  0  0  0  0  0  0  0
    7.8865   44.4831  129.6375 H   0  0  0  0  0  0  0  0  0  0  0  0
    9.2484   47.4298  129.1266 C   0  0  0  0  0  0  0  0  0  0  0  0
    7.9509   48.1266  129.2238 C   0  0  0  0  0  0  0  0  0  0  0  0
    6.7537   47.4950  128.8994 C   0  0  0  0  0  0  0  0  0  0  0  0
    5.5321   48.1211  128.9800 C   0  0  0  0  0  0  0  0  0  0  0  0
    5.4325   49.4328  129.3955 C   0  0  0  0  0  0  0  0  0  0  0  0
    4.2063   50.0888  129.4853 O   0  0  0  0  0  0  0  0  0  0  0  0
    6.6140   50.0678  129.7196 C   0  0  0  0  0  0  0  0  0  0  0  0
    7.8398   49.4394  129.6384 C   0  0  0  0  0  0  0  0  0  0  0  0
    3.8258   50.6098  128.6796 H   0  0  0  0  0  0  0  0  0  0  0  0
   11.0684   43.3257  131.8471 C   0  0  0  0  0  0  0  0  0  0  0  0
   11.7901   42.8361  132.7888 O   0  0  0  0  0  0  0  0  0  0  0  0
    9.8156   43.8626  132.1752 N   0  0  0  0  0  0  0  0  0  0  0  0
    9.1884   44.2909  131.4906 H   0  0  0  0  0  0  0  0  0  0  0  0
    9.3727   43.8337  133.5941 C   0  0  0  0  0  0  0  0  0  0  0  0
    8.6822   42.5574  133.7818 C   0  0  0  0  0  0  0  0  0  0  0  0
    9.3554   41.4475  134.3380 N   0  0  0  0  0  0  0  0  0  0  0  0
    7.4768   42.3860  133.4590 O   0  0  0  0  0  0  0  0  0  0  0  0
   10.3380   41.2765  134.0688 H   0  0  0  0  0  0  0  0  0  0  0  0
    8.8155   40.8339  135.0143 H   0  0  0  0  0  0  0  0  0  0  0  0
    8.4452   44.9940  133.7274 C   0  0  0  0  0  0  0  0  0  0  0  0
    9.0631   46.3001  133.5285 C   0  0  0  0  0  0  0  0  0  0  0  0
    8.4263   47.2593  132.7313 C   0  0  0  0  0  0  0  0  0  0  0  0
    8.9841   48.4867  132.5795 C   0  0  0  0  0  0  0  0  0  0  0  0
   10.1601   48.8586  133.1703 C   0  0  0  0  0  0  0  0  0  0  0  0
   10.7851   47.9041  133.9581 C   0  0  0  0  0  0  0  0  0  0  0  0
   10.2480   46.6595  134.1301 C   0  0  0  0  0  0  0  0  0  0  0  0
   12.7997   44.2289  130.3462 C   0  0  0  0  0  0  0  0  0  0  0  0
   12.8456   45.3749  128.1428 C   0  0  0  0  0  0  0  0  0  0  0  0
   13.3904   44.2293  128.9885 C   0  0  0  0  0  0  0  0  0  0  0  0
   14.9058   44.4715  129.1508 C   0  0  0  0  0  0  0  0  0  0  0  0
 37 38  1  0  0  0
 38 39  1  0  0  0
 38 36  1  0  0  0
 36  1  1  0  0  0
  1  2  1  0  0  0
  2  3  1  0  0  0
  3  4  2  0  0  0
  3  6  1  0  0  0
  6  7  1  0  0  0
  6 10  1  0  0  0
 10 11  1  0  0  0
 11 12  2  0  0  0
 12 13  1  0  0  0
 13 14  2  0  0  0
 14 15  1  0  0  0
 14 16  1  0  0  0
 16 17  2  0  0  0
  1 19  1  0  0  0
 19 20  2  0  0  0
 19 21  1  0  0  0
 21 23  1  0  0  0
 23 29  1  0  0  0
 29 30  1  0  0  0
 30 31  2  0  0  0
 31 32  1  0  0  0
 32 33  2  0  0  0
 33 34  1  0  0  0
 34 35  2  0  0  0
 23 24  1  0  0  0
 24 25  1  0  0  0
 24 26  2  0  0  0
 17 11  1  0  0  0
 35 30  1  0  0  0
  2  5  1  0  0  0
  7  8  1  0  0  0
  7  9  1  0  0  0
 15 18  1  0  0  0
 21 22  1  0  0  0
 25 27  1  0  0  0
 25 28  1  0  0  0
M  END
> <minimizedAffinity>
-2.15945

> <CNNscore>
0.2117231637

> <CNNaffinity>
7.1600875854

> <CNN_VS>
1.5159564018

> <CNNaffinity_variance>
0.2349241227

$$$$
[H]Oc1c([H])c([H])c(C([H])([H])[C@@]([H])(C(=O)N([H])[C@]([H])(C(=O)N([H])[C@]([H])(C(=O)N([H])[H])C([H])([H])c2c([H])c([H])c([H])c([H])c2[H])C([H])([H])C([H])(C([H])([H])[H])C([H])([H])[H])N([H])[H])c([H])c1[H]


 39 40  0  0  0  0  0  0  0  0999 V2000
   11.1775   47.0053  131.0809 C   0  0  0  0  0  0  0  0  0  0  0  0
   10.3203   46.5997  129.9395 N   0  0  0  0  0  0  0  0  0  0  0  0
    8.9606   46.3156  130.1965 C   0  0  0  0  0  0  0  0  0  0  0  0
    8.5457   46.4186  131.3795 O   0  0  0  0  0  0  0  0  0  0  0  0
   10.7054   46.5272  128.9850 H   0  0  0  0  0  0  0  0  0  0  0  0
    8.0361   45.9060  129.1139 C   0  0  0  0  0  0  0  0  0  0  0  0
    7.8456   44.4405  129.2438 N   0  0  0  0  0  0  0  0  0  0  0  0
    7.2874   44.2438  130.1033 H   0  0  0  0  0  0  0  0  0  0  0  0
    8.7733   44.0128  129.2898 H   0  0  0  0  0  0  0  0  0  0  0  0
    6.6985   46.5595  129.2019 C   0  0  0  0  0  0  0  0  0  0  0  0
    6.7040   48.0354  129.2176 C   0  0  0  0  0  0  0  0  0  0  0  0
    7.5747   48.7735  128.4209 C   0  0  0  0  0  0  0  0  0  0  0  0
    7.6013   50.1483  128.4172 C   0  0  0  0  0  0  0  0  0  0  0  0
    6.7480   50.8772  129.2195 C   0  0  0  0  0  0  0  0  0  0  0  0
    6.7561   52.2707  129.2333 O   0  0  0  0  0  0  0  0  0  0  0  0
    5.8807   50.1545  130.0130 C   0  0  0  0  0  0  0  0  0  0  0  0
    5.8544   48.7749  130.0168 C   0  0  0  0  0  0  0  0  0  0  0  0
    7.3621   52.7889  129.8887 H   0  0  0  0  0  0  0  0  0  0  0  0
   11.6704   45.7425  131.6376 C   0  0  0  0  0  0  0  0  0  0  0  0
   12.9121   45.6689  131.9541 O   0  0  0  0  0  0  0  0  0  0  0  0
   10.8594   44.6183  131.8465 N   0  0  0  0  0  0  0  0  0  0  0  0
    9.8577   44.5992  131.6424 H   0  0  0  0  0  0  0  0  0  0  0  0
   11.4716   43.3886  132.4151 C   0  0  0  0  0  0  0  0  0  0  0  0
   10.9036   42.2654  131.6689 C   0  0  0  0  0  0  0  0  0  0  0  0
   10.0083   42.4883  130.5996 N   0  0  0  0  0  0  0  0  0  0  0  0
   11.1757   41.0657  131.9400 O   0  0  0  0  0  0  0  0  0  0  0  0
    9.3048   43.2394  130.6891 H   0  0  0  0  0  0  0  0  0  0  0  0
   10.1007   41.8678  129.7442 H   0  0  0  0  0  0  0  0  0  0  0  0
   11.0484   43.3785  133.8452 C   0  0  0  0  0  0  0  0  0  0  0  0
   10.1078   44.4302  134.2146 C   0  0  0  0  0  0  0  0  0  0  0  0
   10.5379   45.5065  135.0008 C   0  0  0  0  0  0  0  0  0  0  0  0
    9.6709   46.5030  135.3105 C   0  0  0  0  0  0  0  0  0  0  0  0
    8.3685   46.5257  134.8938 C   0  0  0  0  0  0  0  0  0  0  0  0
    7.9495   45.4573  134.1159 C   0  0  0  0  0  0  0  0  0  0  0  0
    8.7993   44.4389  133.7874 C   0  0  0  0  0  0  0  0  0  0  0  0
   10.2469   47.7081  132.0568 C   0  0  0  0  0  0  0  0  0  0  0  0
    9.4412   49.8810  131.1622 C   0  0  0  0  0  0  0  0  0  0  0  0
   10.4285   49.1773  132.0867 C   0  0  0  0  0  0  0  0  0  0  0  0
   10.1125   49.6464  133.5225 C   0  0  0  0  0  0  0  0  0  0  0  0
 37 38  1  0  0  0
 38 39  1  0  0  0
 38 36  1  0  0  0
 36  1  1  0  0  0
  1  2  1  0  0  0
  2  3  1  0  0  0
  3  4  2  0  0  0
  3  6  1  0  0  0
  6  7  1  0  0  0
  6 10  1  0  0  0
 10 11  1  0  0  0
 11 12  2  0  0  0
 12 13  1  0  0  0
 13 14  2  0  0  0
 14 15  1  0  0  0
 14 16  1  0  0  0
 16 17  2  0  0  0
  1 19  1  0  0  0
 19 20  2  0  0  0
 19 21  1  0  0  0
 21 23  1  0  0  0
 23 29  1  0  0  0
 29 30  1  0  0  0
 30 31  2  0  0  0
 31 32  1  0  0  0
 32 33  2  0  0  0
 33 34  1  0  0  0
 34 35  2  0  0  0
 23 24  1  0  0  0
 24 25  1  0  0  0
 24 26  2  0  0  0
 17 11  1  0  0  0
 35 30  1  0  0  0
  2  5  1  0  0  0
  7  8  1  0  0  0
  7  9  1  0  0  0
 15 18  1  0  0  0
 21 22  1  0  0  0
 25 27  1  0  0  0
 25 28  1  0  0  0
M  END
> <minimizedAffinity>
-4.09509

> <CNNscore>
0.1759678423

> <CNNaffinity>
7.0651993752

> <CNN_VS>
1.2432478666

> <CNNaffinity_variance>
0.2847019732

$$$$
[H]Oc1c([H])c([H])c(C([H])([H])[C@@]([H])(C(=O)N([H])[C@]([H])(C(=O)N([H])[C@]([H])(C(=O)N([H])[H])C([H])([H])c2c([H])c([H])c([H])c([H])c2[H])C([H])([H])C([H])(C([H])([H])[H])C([H])([H])[H])N([H])[H])c([H])c1[H]


 39 40  0  0  0  0  0  0  0  0999 V2000
    7.6124   45.9966  129.7780 C   0  0  0  0  0  0  0  0  0  0  0  0
    9.0240   45.5877  129.5735 N   0  0  0  0  0  0  0  0  0  0  0  0
    9.2733   44.3332  128.9734 C   0  0  0  0  0  0  0  0  0  0  0  0
    8.2866   43.6256  128.6449 O   0  0  0  0  0  0  0  0  0  0  0  0
    9.8021   46.2014  129.8607 H   0  0  0  0  0  0  0  0  0  0  0  0
   10.6526   43.8500  128.7314 C   0  0  0  0  0  0  0  0  0  0  0  0
   10.9127   44.0043  127.2791 N   0  0  0  0  0  0  0  0  0  0  0  0
   10.9867   45.0201  127.0517 H   0  0  0  0  0  0  0  0  0  0  0  0
   10.1387   43.5608  126.7792 H   0  0  0  0  0  0  0  0  0  0  0  0
   11.6877   44.6241  129.4753 C   0  0  0  0  0  0  0  0  0  0  0  0
   11.8210   44.3052  130.9102 C   0  0  0  0  0  0  0  0  0  0  0  0
   11.4025   43.0844  131.4316 C   0  0  0  0  0  0  0  0  0  0  0  0
   11.5141   42.7625  132.7638 C   0  0  0  0  0  0  0  0  0  0  0  0
   12.0580   43.6530  133.6664 C   0  0  0  0  0  0  0  0  0  0  0  0
   12.1815   43.3499  135.0210 O   0  0  0  0  0  0  0  0  0  0  0  0
   12.4760   44.8663  133.1591 C   0  0  0  0  0  0  0  0  0  0  0  0
   12.3637   45.1891  131.8223 C   0  0  0  0  0  0  0  0  0  0  0  0
   11.4232   43.5752  135.6839 H   0  0  0  0  0  0  0  0  0  0  0  0
    7.6499   47.4615  129.7762 C   0  0  0  0  0  0  0  0  0  0  0  0
    8.1906   48.0479  128.7705 O   0  0  0  0  0  0  0  0  0  0  0  0
    7.1239   48.2520  130.8075 N   0  0  0  0  0  0  0  0  0  0  0  0
    6.6580   47.8668  131.6322 H   0  0  0  0  0  0  0  0  0  0  0  0
    7.2226   49.7314  130.6983 C   0  0  0  0  0  0  0  0  0  0  0  0
    6.5487   50.0960  129.4517 C   0  0  0  0  0  0  0  0  0  0  0  0
    7.2071   50.8779  128.4772 N   0  0  0  0  0  0  0  0  0  0  0  0
    5.3684   49.7412  129.1914 O   0  0  0  0  0  0  0  0  0  0  0  0
    7.8091   51.6571  128.7894 H   0  0  0  0  0  0  0  0  0  0  0  0
    7.0519   50.6261  127.4585 H   0  0  0  0  0  0  0  0  0  0  0  0
    8.6862   50.0126  130.6435 C   0  0  0  0  0  0  0  0  0  0  0  0
    9.4774   49.3525  131.6758 C   0  0  0  0  0  0  0  0  0  0  0  0
   10.3657   48.3280  131.3257 C   0  0  0  0  0  0  0  0  0  0  0  0
   11.1287   47.7421  132.2824 C   0  0  0  0  0  0  0  0  0  0  0  0
   11.0858   48.0965  133.6027 C   0  0  0  0  0  0  0  0  0  0  0  0
   10.2042   49.1113  133.9421 C   0  0  0  0  0  0  0  0  0  0  0  0
    9.4227   49.7204  133.0011 C   0  0  0  0  0  0  0  0  0  0  0  0
    7.2297   45.4600  131.1485 C   0  0  0  0  0  0  0  0  0  0  0  0
    8.3356   45.8776  133.3332 C   0  0  0  0  0  0  0  0  0  0  0  0
    8.3974   45.1396  132.0006 C   0  0  0  0  0  0  0  0  0  0  0  0
    8.3293   43.6310  132.3185 C   0  0  0  0  0  0  0  0  0  0  0  0
 37 38  1  0  0  0
 38 39  1  0  0  0
 38 36  1  0  0  0
 36  1  1  0  0  0
  1  2  1  0  0  0
  2  3  1  0  0  0
  3  4  2  0  0  0
  3  6  1  0  0  0
  6  7  1  0  0  0
  6 10  1  0  0  0
 10 11  1  0  0  0
 11 12  2  0  0  0
 12 13  1  0  0  0
 13 14  2  0  0  0
 14 15  1  0  0  0
 14 16  1  0  0  0
 16 17  2  0  0  0
  1 19  1  0  0  0
 19 20  2  0  0  0
 19 21  1  0  0  0
 21 23  1  0  0  0
 23 29  1  0  0  0
 29 30  1  0  0  0
 30 31  2  0  0  0
 31 32  1  0  0  0
 32 33  2  0  0  0
 33 34  1  0  0  0
 34 35  2  0  0  0
 23 24  1  0  0  0
 24 25  1  0  0  0
 24 26  2  0  0  0
 17 11  1  0  0  0
 35 30  1  0  0  0
  2  5  1  0  0  0
  7  8  1  0  0  0
  7  9  1  0  0  0
 15 18  1  0  0  0
 21 22  1  0  0  0
 25 27  1  0  0  0
 25 28  1  0  0  0
M  END
> <minimizedAffinity>
-5.89933

> <CNNscore>
0.1723563522

> <CNNaffinity>
7.1639289856

> <CNN_VS>
1.2347487211

> <CNNaffinity_variance>
0.5968537331

$$$$
[H]Oc1c([H])c([H])c(C([H])([H])[C@@]([H])(C(=O)N([H])[C@]([H])(C(=O)N([H])[C@]([H])(C(=O)N([H])[H])C([H])([H])c2c([H])c([H])c([H])c([H])c2[H])C([H])([H])C([H])(C([H])([H])[H])C([H])([H])[H])N([H])[H])c([H])c1[H]


 39 40  0  0  0  0  0  0  0  0999 V2000
   10.8147   45.3642  128.5145 C   0  0  0  0  0  0  0  0  0  0  0  0
   10.0104   46.4087  129.1958 N   0  0  0  0  0  0  0  0  0  0  0  0
    9.0887   47.1490  128.4225 C   0  0  0  0  0  0  0  0  0  0  0  0
    8.9977   46.8870  127.1955 O   0  0  0  0  0  0  0  0  0  0  0  0
   10.1204   46.5899  130.2057 H   0  0  0  0  0  0  0  0  0  0  0  0
    8.2457   48.2079  129.0245 C   0  0  0  0  0  0  0  0  0  0  0  0
    7.0512   48.3508  128.1565 N   0  0  0  0  0  0  0  0  0  0  0  0
    6.4527   47.5018  128.2572 H   0  0  0  0  0  0  0  0  0  0  0  0
    7.3814   48.4684  127.1959 H   0  0  0  0  0  0  0  0  0  0  0  0
    7.7831   47.8803  130.4040 C   0  0  0  0  0  0  0  0  0  0  0  0
    8.7656   48.1064  131.4819 C   0  0  0  0  0  0  0  0  0  0  0  0
    9.7940   47.2038  131.7373 C   0  0  0  0  0  0  0  0  0  0  0  0
   10.7213   47.3897  132.7355 C   0  0  0  0  0  0  0  0  0  0  0  0
   10.6760   48.5034  133.5485 C   0  0  0  0  0  0  0  0  0  0  0  0
   11.6042   48.7139  134.5665 O   0  0  0  0  0  0  0  0  0  0  0  0
    9.6600   49.4043  133.3031 C   0  0  0  0  0  0  0  0  0  0  0  0
    8.7294   49.2175  132.3016 C   0  0  0  0  0  0  0  0  0  0  0  0
   11.4323   48.3579  135.5199 H   0  0  0  0  0  0  0  0  0  0  0  0
   10.2942   44.0988  129.0393 C   0  0  0  0  0  0  0  0  0  0  0  0
    9.9614   43.1899  128.1964 O   0  0  0  0  0  0  0  0  0  0  0  0
   10.1467   43.8286  130.4069 N   0  0  0  0  0  0  0  0  0  0  0  0
   10.4074   44.4878  131.1438 H   0  0  0  0  0  0  0  0  0  0  0  0
    9.6037   42.5084  130.8223 C   0  0  0  0  0  0  0  0  0  0  0  0
    8.1475   42.6512  130.8388 C   0  0  0  0  0  0  0  0  0  0  0  0
    7.3174   41.5474  131.1336 N   0  0  0  0  0  0  0  0  0  0  0  0
    7.5716   43.7438  130.5914 O   0  0  0  0  0  0  0  0  0  0  0  0
    7.5728   40.6195  130.7585 H   0  0  0  0  0  0  0  0  0  0  0  0
    6.4605   41.7237  131.7336 H   0  0  0  0  0  0  0  0  0  0  0  0
   10.1570   42.2816  132.1886 C   0  0  0  0  0  0  0  0  0  0  0  0
    9.9779   43.3930  133.1158 C   0  0  0  0  0  0  0  0  0  0  0  0
    8.7226   44.0009  133.2424 C   0  0  0  0  0  0  0  0  0  0  0  0
    8.5494   45.0090  134.1338 C   0  0  0  0  0  0  0  0  0  0  0  0
    9.5480   45.4832  134.9389 C   0  0  0  0  0  0  0  0  0  0  0  0
   10.7879   44.8769  134.8084 C   0  0  0  0  0  0  0  0  0  0  0  0
   10.9934   43.8595  133.9196 C   0  0  0  0  0  0  0  0  0  0  0  0
   12.2477   45.5969  128.9670 C   0  0  0  0  0  0  0  0  0  0  0  0
   14.2480   44.1617  129.2981 C   0  0  0  0  0  0  0  0  0  0  0  0
   12.8155   44.4599  129.7267 C   0  0  0  0  0  0  0  0  0  0  0  0
   12.8689   44.8837  131.2095 C   0  0  0  0  0  0  0  0  0  0  0  0
 37 38  1  0  0  0
 38 39  1  0  0  0
 38 36  1  0  0  0
 36  1  1  0  0  0
  1  2  1  0  0  0
  2  3  1  0  0  0
  3  4  2  0  0  0
  3  6  1  0  0  0
  6  7  1  0  0  0
  6 10  1  0  0  0
 10 11  1  0  0  0
 11 12  2  0  0  0
 12 13  1  0  0  0
 13 14  2  0  0  0
 14 15  1  0  0  0
 14 16  1  0  0  0
 16 17  2  0  0  0
  1 19  1  0  0  0
 19 20  2  0  0  0
 19 21  1  0  0  0
 21 23  1  0  0  0
 23 29  1  0  0  0
 29 30  1  0  0  0
 30 31  2  0  0  0
 31 32  1  0  0  0
 32 33  2  0  0  0
 33 34  1  0  0  0
 34 35  2  0  0  0
 23 24  1  0  0  0
 24 25  1  0  0  0
 24 26  2  0  0  0
 17 11  1  0  0  0
 35 30  1  0  0  0
  2  5  1  0  0  0
  7  8  1  0  0  0
  7  9  1  0  0  0
 15 18  1  0  0  0
 21 22  1  0  0  0
 25 27  1  0  0  0
 25 28  1  0  0  0
M  END
> <minimizedAffinity>
-0.89990

> <CNNscore>
0.1637691408

> <CNNaffinity>
7.2189722061

> <CNN_VS>
1.1822448969

> <CNNaffinity_variance>
0.1581070870

$$$$
[H]Oc1c([H])c([H])c(C([H])([H])[C@@]([H])(C(=O)N([H])[C@]([H])(C(=O)N([H])[C@]([H])(C(=O)N([H])[H])C([H])([H])c2c([H])c([H])c([H])c([H])c2[H])C([H])([H])C([H])(C([H])([H])[H])C([H])([H])[H])N([H])[H])c([H])c1[H]


 39 40  0  0  0  0  0  0  0  0999 V2000
    9.0754   44.2352  131.0303 C   0  0  0  0  0  0  0  0  0  0  0  0
    8.9575   45.5762  130.4061 N   0  0  0  0  0  0  0  0  0  0  0  0
   10.0381   46.0445  129.6258 C   0  0  0  0  0  0  0  0  0  0  0  0
   11.0461   45.3024  129.5014 O   0  0  0  0  0  0  0  0  0  0  0  0
    8.1107   46.1510  130.5373 H   0  0  0  0  0  0  0  0  0  0  0  0
   10.0009   47.3704  128.9663 C   0  0  0  0  0  0  0  0  0  0  0  0
    9.0417   47.2627  127.8399 N   0  0  0  0  0  0  0  0  0  0  0  0
    8.0748   47.1740  128.2224 H   0  0  0  0  0  0  0  0  0  0  0  0
    9.3062   46.4434  127.2880 H   0  0  0  0  0  0  0  0  0  0  0  0
    9.5398   48.4649  129.8683 C   0  0  0  0  0  0  0  0  0  0  0  0
    8.1245   48.8598  129.7282 C   0  0  0  0  0  0  0  0  0  0  0  0
    7.1327   47.9341  129.4171 C   0  0  0  0  0  0  0  0  0  0  0  0
    5.8078   48.2754  129.2797 C   0  0  0  0  0  0  0  0  0  0  0  0
    5.3893   49.5792  129.4476 C   0  0  0  0  0  0  0  0  0  0  0  0
    4.0525   49.9496  129.3136 O   0  0  0  0  0  0  0  0  0  0  0  0
    6.3652   50.5046  129.7564 C   0  0  0  0  0  0  0  0  0  0  0  0
    7.6947   50.1619  129.8940 C   0  0  0  0  0  0  0  0  0  0  0  0
    3.6748   50.2426  128.3988 H   0  0  0  0  0  0  0  0  0  0  0  0
    9.8029   44.4739  132.2799 C   0  0  0  0  0  0  0  0  0  0  0  0
    9.2799   44.0463  133.3712 O   0  0  0  0  0  0  0  0  0  0  0  0
   11.0364   45.1368  132.3444 N   0  0  0  0  0  0  0  0  0  0  0  0
   11.5315   45.4892  131.5221 H   0  0  0  0  0  0  0  0  0  0  0  0
   11.6806   45.3246  133.6711 C   0  0  0  0  0  0  0  0  0  0  0  0
   12.0541   43.9890  134.1379 C   0  0  0  0  0  0  0  0  0  0  0  0
   12.8536   43.1425  133.3388 N   0  0  0  0  0  0  0  0  0  0  0  0
   11.6848   43.5338  135.2529 O   0  0  0  0  0  0  0  0  0  0  0  0
   12.6910   43.1230  132.3189 H   0  0  0  0  0  0  0  0  0  0  0  0
   13.5928   42.5596  133.8278 H   0  0  0  0  0  0  0  0  0  0  0  0
   10.6227   45.9378  134.5250 C   0  0  0  0  0  0  0  0  0  0  0  0
   10.0907   47.2024  134.0302 C   0  0  0  0  0  0  0  0  0  0  0  0
   10.9636   48.2519  133.7171 C   0  0  0  0  0  0  0  0  0  0  0  0
   10.4691   49.4137  133.2204 C   0  0  0  0  0  0  0  0  0  0  0  0
    9.1373   49.6327  132.9994 C   0  0  0  0  0  0  0  0  0  0  0  0
    8.2790   48.5895  133.3114 C   0  0  0  0  0  0  0  0  0  0  0  0
    8.7470   47.4078  133.8132 C   0  0  0  0  0  0  0  0  0  0  0  0
    9.9069   43.4090  130.0615 C   0  0  0  0  0  0  0  0  0  0  0  0
   10.6313   41.4529  131.4103 C   0  0  0  0  0  0  0  0  0  0  0  0
    9.7617   41.9490  130.2604 C   0  0  0  0  0  0  0  0  0  0  0  0
    8.2946   41.6872  130.6609 C   0  0  0  0  0  0  0  0  0  0  0  0
 37 38  1  0  0  0
 38 39  1  0  0  0
 38 36  1  0  0  0
 36  1  1  0  0  0
  1  2  1  0  0  0
  2  3  1  0  0  0
  3  4  2  0  0  0
  3  6  1  0  0  0
  6  7  1  0  0  0
  6 10  1  0  0  0
 10 11  1  0  0  0
 11 12  2  0  0  0
 12 13  1  0  0  0
 13 14  2  0  0  0
 14 15  1  0  0  0
 14 16  1  0  0  0
 16 17  2  0  0  0
  1 19  1  0  0  0
 19 20  2  0  0  0
 19 21  1  0  0  0
 21 23  1  0  0  0
 23 29  1  0  0  0
 29 30  1  0  0  0
 30 31  2  0  0  0
 31 32  1  0  0  0
 32 33  2  0  0  0
 33 34  1  0  0  0
 34 35  2  0  0  0
 23 24  1  0  0  0
 24 25  1  0  0  0
 24 26  2  0  0  0
 17 11  1  0  0  0
 35 30  1  0  0  0
  2  5  1  0  0  0
  7  8  1  0  0  0
  7  9  1  0  0  0
 15 18  1  0  0  0
 21 22  1  0  0  0
 25 27  1  0  0  0
 25 28  1  0  0  0
M  END
> <minimizedAffinity>
-2.52341

> <CNNscore>
0.1397068799

> <CNNaffinity>
7.1527776718

> <CNN_VS>
0.9992922544

> <CNNaffinity_variance>
0.2172679603

$$$$
[H]Oc1c([H])c([H])c(C([H])([H])[C@@]([H])(C(=O)N([H])[C@]([H])(C(=O)N([H])[C@]([H])(C(=O)N([H])[H])C([H])([H])c2c([H])c([H])c([H])c([H])c2[H])C([H])([H])C([H])(C([H])([H])[H])C([H])([H])[H])N([H])[H])c([H])c1[H]


 39 40  0  0  0  0  0  0  0  0999 V2000
    7.4199   48.2447  130.3158 C   0  0  0  0  0  0  0  0  0  0  0  0
    8.1221   47.8642  131.5664 N   0  0  0  0  0  0  0  0  0  0  0  0
    9.3322   48.5237  131.8773 C   0  0  0  0  0  0  0  0  0  0  0  0
    9.7542   49.3983  131.0777 O   0  0  0  0  0  0  0  0  0  0  0  0
    7.7384   47.1389  132.1919 H   0  0  0  0  0  0  0  0  0  0  0  0
   10.0950   48.2054  133.1066 C   0  0  0  0  0  0  0  0  0  0  0  0
   10.3757   49.4952  133.7835 N   0  0  0  0  0  0  0  0  0  0  0  0
    9.4844   49.8815  134.1650 H   0  0  0  0  0  0  0  0  0  0  0  0
   10.7929   50.1215  133.0912 H   0  0  0  0  0  0  0  0  0  0  0  0
    9.3455   47.3338  134.0567 C   0  0  0  0  0  0  0  0  0  0  0  0
    9.5649   45.8819  133.9066 C   0  0  0  0  0  0  0  0  0  0  0  0
   10.6749   45.2477  134.4572 C   0  0  0  0  0  0  0  0  0  0  0  0
   10.9036   43.8976  134.3313 C   0  0  0  0  0  0  0  0  0  0  0  0
   10.0251   43.0901  133.6390 C   0  0  0  0  0  0  0  0  0  0  0  0
   10.2351   41.7197  133.4977 O   0  0  0  0  0  0  0  0  0  0  0  0
    8.9212   43.7095  133.0894 C   0  0  0  0  0  0  0  0  0  0  0  0
    8.6921   45.0643  133.2157 C   0  0  0  0  0  0  0  0  0  0  0  0
   10.7689   41.3470  132.6968 H   0  0  0  0  0  0  0  0  0  0  0  0
    7.9628   47.3394  129.2993 C   0  0  0  0  0  0  0  0  0  0  0  0
    8.0284   47.7637  128.0897 O   0  0  0  0  0  0  0  0  0  0  0  0
    8.4169   46.0429  129.5786 N   0  0  0  0  0  0  0  0  0  0  0  0
    8.4201   45.6358  130.5165 H   0  0  0  0  0  0  0  0  0  0  0  0
    8.9449   45.2127  128.4639 C   0  0  0  0  0  0  0  0  0  0  0  0
    8.8764   43.8239  128.9195 C   0  0  0  0  0  0  0  0  0  0  0  0
    9.5475   42.7996  128.2160 N   0  0  0  0  0  0  0  0  0  0  0  0
    8.2245   43.4776  129.9402 O   0  0  0  0  0  0  0  0  0  0  0  0
    9.5543   42.8283  127.1835 H   0  0  0  0  0  0  0  0  0  0  0  0
   10.0194   42.0398  128.7864 H   0  0  0  0  0  0  0  0  0  0  0  0
   10.3525   45.6707  128.2815 C   0  0  0  0  0  0  0  0  0  0  0  0
   11.2596   45.3148  129.3667 C   0  0  0  0  0  0  0  0  0  0  0  0
   12.3379   44.4556  129.1214 C   0  0  0  0  0  0  0  0  0  0  0  0
   13.2026   44.1570  130.1234 C   0  0  0  0  0  0  0  0  0  0  0  0
   13.0865   44.6540  131.3923 C   0  0  0  0  0  0  0  0  0  0  0  0
   12.0168   45.5039  131.6280 C   0  0  0  0  0  0  0  0  0  0  0  0
   11.1294   45.8232  130.6392 C   0  0  0  0  0  0  0  0  0  0  0  0
    7.8293   49.6835  130.0430 C   0  0  0  0  0  0  0  0  0  0  0  0
    6.8828   51.5475  128.7013 C   0  0  0  0  0  0  0  0  0  0  0  0
    6.6783   50.6004  129.8784 C   0  0  0  0  0  0  0  0  0  0  0  0
    5.4470   49.7311  129.5474 C   0  0  0  0  0  0  0  0  0  0  0  0
 37 38  1  0  0  0
 38 39  1  0  0  0
 38 36  1  0  0  0
 36  1  1  0  0  0
  1  2  1  0  0  0
  2  3  1  0  0  0
  3  4  2  0  0  0
  3  6  1  0  0  0
  6  7  1  0  0  0
  6 10  1  0  0  0
 10 11  1  0  0  0
 11 12  2  0  0  0
 12 13  1  0  0  0
 13 14  2  0  0  0
 14 15  1  0  0  0
 14 16  1  0  0  0
 16 17  2  0  0  0
  1 19  1  0  0  0
 19 20  2  0  0  0
 19 21  1  0  0  0
 21 23  1  0  0  0
 23 29  1  0  0  0
 29 30  1  0  0  0
 30 31  2  0  0  0
 31 32  1  0  0  0
 32 33  2  0  0  0
 33 34  1  0  0  0
 34 35  2  0  0  0
 23 24  1  0  0  0
 24 25  1  0  0  0
 24 26  2  0  0  0
 17 11  1  0  0  0
 35 30  1  0  0  0
  2  5  1  0  0  0
  7  8  1  0  0  0
  7  9  1  0  0  0
 15 18  1  0  0  0
 21 22  1  0  0  0
 25 27  1  0  0  0
 25 28  1  0  0  0
M  END
> <minimizedAffinity>
-5.82321

> <CNNscore>
0.1372126341

> <CNNaffinity>
7.0749144554

> <CNN_VS>
0.9707676768

> <CNNaffinity_variance>
0.3725695014

$$$$
[H]Oc1c([H])c([H])c(C([H])([H])[C@@]([H])(C(=O)N([H])[C@]([H])(C(=O)N([H])[C@]([H])(C(=O)N([H])[H])C([H])([H])c2c([H])c([H])c([H])c([H])c2[H])C([H])([H])C([H])(C([H])([H])[H])C([H])([H])[H])N([H])[H])c([H])c1[H]


 39 40  0  0  0  0  0  0  0  0999 V2000
   11.0697   45.2480  128.7614 C   0  0  0  0  0  0  0  0  0  0  0  0
   10.2399   46.3465  129.3152 N   0  0  0  0  0  0  0  0  0  0  0  0
   10.4982   46.7746  130.6365 C   0  0  0  0  0  0  0  0  0  0  0  0
   11.4166   46.2019  131.2774 O   0  0  0  0  0  0  0  0  0  0  0  0
    9.4954   46.7860  128.7520 H   0  0  0  0  0  0  0  0  0  0  0  0
    9.7177   47.8659  131.2644 C   0  0  0  0  0  0  0  0  0  0  0  0
   10.5394   48.3936  132.3811 N   0  0  0  0  0  0  0  0  0  0  0  0
   11.3622   48.9018  131.9887 H   0  0  0  0  0  0  0  0  0  0  0  0
   10.8260   47.5974  132.9550 H   0  0  0  0  0  0  0  0  0  0  0  0
    9.4211   48.9911  130.3316 C   0  0  0  0  0  0  0  0  0  0  0  0
    7.9945   49.2126  130.0248 C   0  0  0  0  0  0  0  0  0  0  0  0
    7.2318   48.2588  129.3569 C   0  0  0  0  0  0  0  0  0  0  0  0
    5.9019   48.4403  129.0580 C   0  0  0  0  0  0  0  0  0  0  0  0
    5.2461   49.6008  129.4135 C   0  0  0  0  0  0  0  0  0  0  0  0
    3.8993   49.8080  129.1216 O   0  0  0  0  0  0  0  0  0  0  0  0
    5.9938   50.5526  130.0762 C   0  0  0  0  0  0  0  0  0  0  0  0
    7.3283   50.3704  130.3759 C   0  0  0  0  0  0  0  0  0  0  0  0
    3.6133   50.2512  128.2344 H   0  0  0  0  0  0  0  0  0  0  0  0
   10.4449   44.0235  129.2689 C   0  0  0  0  0  0  0  0  0  0  0  0
   10.0131   43.1697  128.4134 O   0  0  0  0  0  0  0  0  0  0  0  0
   10.3000   43.7349  130.6331 N   0  0  0  0  0  0  0  0  0  0  0  0
   10.6350   44.3492  131.3786 H   0  0  0  0  0  0  0  0  0  0  0  0
    9.6455   42.4604  131.0305 C   0  0  0  0  0  0  0  0  0  0  0  0
    8.2260   42.6113  130.7092 C   0  0  0  0  0  0  0  0  0  0  0  0
    7.6950   43.8725  130.3604 N   0  0  0  0  0  0  0  0  0  0  0  0
    7.4204   41.6432  130.7312 O   0  0  0  0  0  0  0  0  0  0  0  0
    8.0293   44.7092  130.8656 H   0  0  0  0  0  0  0  0  0  0  0  0
    6.9696   43.9032  129.5870 H   0  0  0  0  0  0  0  0  0  0  0  0
    9.8763   42.3558  132.5002 C   0  0  0  0  0  0  0  0  0  0  0  0
    9.7592   43.6124  133.2312 C   0  0  0  0  0  0  0  0  0  0  0  0
   10.8729   44.1385  133.8976 C   0  0  0  0  0  0  0  0  0  0  0  0
   10.7715   45.3270  134.5442 C   0  0  0  0  0  0  0  0  0  0  0  0
    9.6209   46.0649  134.5891 C   0  0  0  0  0  0  0  0  0  0  0  0
    8.5223   45.5382  133.9273 C   0  0  0  0  0  0  0  0  0  0  0  0
    8.5935   44.3438  133.2673 C   0  0  0  0  0  0  0  0  0  0  0  0
   12.4540   45.4452  129.3593 C   0  0  0  0  0  0  0  0  0  0  0  0
   14.6349   44.2902  129.0760 C   0  0  0  0  0  0  0  0  0  0  0  0
   13.1932   44.1778  129.5591 C   0  0  0  0  0  0  0  0  0  0  0  0
   13.2473   43.9165  131.0790 C   0  0  0  0  0  0  0  0  0  0  0  0
 37 38  1  0  0  0
 38 39  1  0  0  0
 38 36  1  0  0  0
 36  1  1  0  0  0
  1  2  1  0  0  0
  2  3  1  0  0  0
  3  4  2  0  0  0
  3  6  1  0  0  0
  6  7  1  0  0  0
  6 10  1  0  0  0
 10 11  1  0  0  0
 11 12  2  0  0  0
 12 13  1  0  0  0
 13 14  2  0  0  0
 14 15  1  0  0  0
 14 16  1  0  0  0
 16 17  2  0  0  0
  1 19  1  0  0  0
 19 20  2  0  0  0
 19 21  1  0  0  0
 21 23  1  0  0  0
 23 29  1  0  0  0
 29 30  1  0  0  0
 30 31  2  0  0  0
 31 32  1  0  0  0
 32 33  2  0  0  0
 33 34  1  0  0  0
 34 35  2  0  0  0
 23 24  1  0  0  0
 24 25  1  0  0  0
 24 26  2  0  0  0
 17 11  1  0  0  0
 35 30  1  0  0  0
  2  5  1  0  0  0
  7  8  1  0  0  0
  7  9  1  0  0  0
 15 18  1  0  0  0
 21 22  1  0  0  0
 25 27  1  0  0  0
 25 28  1  0  0  0
M  END
> <minimizedAffinity>
-4.69351

> <CNNscore>
0.1333289444

> <CNNaffinity>
6.9408621788

> <CNN_VS>
0.9254178405

> <CNNaffinity_variance>
0.2823234200

$$$$
[H]Oc1c([H])c([H])c(C([H])([H])[C@@]([H])(C(=O)N([H])[C@]([H])(C(=O)N([H])[C@]([H])(C(=O)N([H])[H])C([H])([H])c2c([H])c([H])c([H])c([H])c2[H])C([H])([H])C([H])(C([H])([H])[H])C([H])([H])[H])N([H])[H])c([H])c1[H]


 39 40  0  0  0  0  0  0  0  0999 V2000
   10.9192   43.6154  130.2602 C   0  0  0  0  0  0  0  0  0  0  0  0
    9.8659   44.6547  130.3721 N   0  0  0  0  0  0  0  0  0  0  0  0
    8.5178   44.2343  130.4127 C   0  0  0  0  0  0  0  0  0  0  0  0
    8.2782   43.0010  130.3498 O   0  0  0  0  0  0  0  0  0  0  0  0
   10.1101   45.6560  130.4193 H   0  0  0  0  0  0  0  0  0  0  0  0
    7.4057   45.2063  130.5256 C   0  0  0  0  0  0  0  0  0  0  0  0
    7.7841   46.1701  131.5879 N   0  0  0  0  0  0  0  0  0  0  0  0
    8.5697   46.7652  131.2446 H   0  0  0  0  0  0  0  0  0  0  0  0
    8.0530   45.6287  132.4127 H   0  0  0  0  0  0  0  0  0  0  0  0
    7.1606   45.9706  129.2686 C   0  0  0  0  0  0  0  0  0  0  0  0
    7.0937   47.4381  129.4114 C   0  0  0  0  0  0  0  0  0  0  0  0
    8.2386   48.2106  129.5840 C   0  0  0  0  0  0  0  0  0  0  0  0
    8.2042   49.5785  129.7205 C   0  0  0  0  0  0  0  0  0  0  0  0
    7.0080   50.2651  129.6920 C   0  0  0  0  0  0  0  0  0  0  0  0
    6.9474   51.6507  129.8283 O   0  0  0  0  0  0  0  0  0  0  0  0
    5.8670   49.5080  129.5211 C   0  0  0  0  0  0  0  0  0  0  0  0
    5.9018   48.1354  129.3844 C   0  0  0  0  0  0  0  0  0  0  0  0
    6.8521   52.0862  130.7592 H   0  0  0  0  0  0  0  0  0  0  0  0
   11.5576   43.5953  131.5792 C   0  0  0  0  0  0  0  0  0  0  0  0
   12.2981   42.5892  131.8735 O   0  0  0  0  0  0  0  0  0  0  0  0
   11.4068   44.6151  132.5292 N   0  0  0  0  0  0  0  0  0  0  0  0
   10.8535   45.4597  132.3676 H   0  0  0  0  0  0  0  0  0  0  0  0
   12.1010   44.4844  133.8374 C   0  0  0  0  0  0  0  0  0  0  0  0
   11.2647   43.6092  134.6593 C   0  0  0  0  0  0  0  0  0  0  0  0
   10.2019   42.8781  134.0844 N   0  0  0  0  0  0  0  0  0  0  0  0
   11.4441   43.4695  135.8983 O   0  0  0  0  0  0  0  0  0  0  0  0
    9.6245   43.3300  133.3568 H   0  0  0  0  0  0  0  0  0  0  0  0
   10.0439   41.8876  134.4296 H   0  0  0  0  0  0  0  0  0  0  0  0
   12.1564   45.8726  134.3797 C   0  0  0  0  0  0  0  0  0  0  0  0
   10.9947   46.6989  134.0720 C   0  0  0  0  0  0  0  0  0  0  0  0
    9.7963   46.5058  134.7705 C   0  0  0  0  0  0  0  0  0  0  0  0
    8.7289   47.3016  134.5094 C   0  0  0  0  0  0  0  0  0  0  0  0
    8.7473   48.3075  133.5830 C   0  0  0  0  0  0  0  0  0  0  0  0
    9.9368   48.4931  132.8954 C   0  0  0  0  0  0  0  0  0  0  0  0
   11.0288   47.7078  133.1362 C   0  0  0  0  0  0  0  0  0  0  0  0
   11.8782   44.1236  129.1950 C   0  0  0  0  0  0  0  0  0  0  0  0
   10.0859   43.3807  127.6438 C   0  0  0  0  0  0  0  0  0  0  0  0
   11.2291   44.3601  127.8854 C   0  0  0  0  0  0  0  0  0  0  0  0
   10.6089   45.7724  127.9325 C   0  0  0  0  0  0  0  0  0  0  0  0
 37 38  1  0  0  0
 38 39  1  0  0  0
 38 36  1  0  0  0
 36  1  1  0  0  0
  1  2  1  0  0  0
  2  3  1  0  0  0
  3  4  2  0  0  0
  3  6  1  0  0  0
  6  7  1  0  0  0
  6 10  1  0  0  0
 10 11  1  0  0  0
 11 12  2  0  0  0
 12 13  1  0  0  0
 13 14  2  0  0  0
 14 15  1  0  0  0
 14 16  1  0  0  0
 16 17  2  0  0  0
  1 19  1  0  0  0
 19 20  2  0  0  0
 19 21  1  0  0  0
 21 23  1  0  0  0
 23 29  1  0  0  0
 29 30  1  0  0  0
 30 31  2  0  0  0
 31 32  1  0  0  0
 32 33  2  0  0  0
 33 34  1  0  0  0
 34 35  2  0  0  0
 23 24  1  0  0  0
 24 25  1  0  0  0
 24 26  2  0  0  0
 17 11  1  0  0  0
 35 30  1  0  0  0
  2  5  1  0  0  0
  7  8  1  0  0  0
  7  9  1  0  0  0
 15 18  1  0  0  0
 21 22  1  0  0  0
 25 27  1  0  0  0
 25 28  1  0  0  0
M  END
> <minimizedAffinity>
-6.32150

> <CNNscore>
0.1319503784

> <CNNaffinity>
6.8946013451

> <CNN_VS>
0.9097452760

> <CNNaffinity_variance>
0.5044850111

$$$$
[H]Oc1c([H])c([H])c(C([H])([H])[C@@]([H])(C(=O)N([H])[C@]([H])(C(=O)N([H])[C@]([H])(C(=O)N([H])[H])C([H])([H])c2c([H])c([H])c([H])c([H])c2[H])C([H])([H])C([H])(C([H])([H])[H])C([H])([H])[H])N([H])[H])c([H])c1[H]


 39 40  0  0  0  0  0  0  0  0999 V2000
    7.9085   46.9853  129.7760 C   0  0  0  0  0  0  0  0  0  0  0  0
    8.2259   47.3743  131.1724 N   0  0  0  0  0  0  0  0  0  0  0  0
    9.3581   48.1893  131.3953 C   0  0  0  0  0  0  0  0  0  0  0  0
   10.0409   48.5422  130.3996 O   0  0  0  0  0  0  0  0  0  0  0  0
    7.6369   47.0592  131.9588 H   0  0  0  0  0  0  0  0  0  0  0  0
    9.7440   48.6244  132.7577 C   0  0  0  0  0  0  0  0  0  0  0  0
    9.5265   50.0906  132.8177 N   0  0  0  0  0  0  0  0  0  0  0  0
    8.5011   50.2844  132.8012 H   0  0  0  0  0  0  0  0  0  0  0  0
   10.0021   50.5053  132.0130 H   0  0  0  0  0  0  0  0  0  0  0  0
    8.9298   47.9879  133.8329 C   0  0  0  0  0  0  0  0  0  0  0  0
    8.9573   46.5127  133.8719 C   0  0  0  0  0  0  0  0  0  0  0  0
    9.7178   45.8184  134.8083 C   0  0  0  0  0  0  0  0  0  0  0  0
    9.7621   44.4452  134.8658 C   0  0  0  0  0  0  0  0  0  0  0  0
    9.0393   43.6738  133.9794 C   0  0  0  0  0  0  0  0  0  0  0  0
    9.0680   42.2810  134.0175 O   0  0  0  0  0  0  0  0  0  0  0  0
    8.2820   44.3529  133.0470 C   0  0  0  0  0  0  0  0  0  0  0  0
    8.2379   45.7308  132.9894 C   0  0  0  0  0  0  0  0  0  0  0  0
    9.7666   41.7520  133.4722 H   0  0  0  0  0  0  0  0  0  0  0  0
    8.7849   45.8427  129.5044 C   0  0  0  0  0  0  0  0  0  0  0  0
    8.2495   44.6786  129.4298 O   0  0  0  0  0  0  0  0  0  0  0  0
   10.1697   45.9549  129.3172 N   0  0  0  0  0  0  0  0  0  0  0  0
   10.6718   46.8453  129.3387 H   0  0  0  0  0  0  0  0  0  0  0  0
   10.9590   44.7235  129.0506 C   0  0  0  0  0  0  0  0  0  0  0  0
   10.4121   44.1441  127.8233 C   0  0  0  0  0  0  0  0  0  0  0  0
    9.7926   42.8751  127.8380 N   0  0  0  0  0  0  0  0  0  0  0  0
   10.4690   44.7346  126.7121 O   0  0  0  0  0  0  0  0  0  0  0  0
   10.2019   42.1292  128.4239 H   0  0  0  0  0  0  0  0  0  0  0  0
    8.9258   42.7447  127.2406 H   0  0  0  0  0  0  0  0  0  0  0  0
   10.7158   43.8510  130.2355 C   0  0  0  0  0  0  0  0  0  0  0  0
   11.5060   44.1835  131.4154 C   0  0  0  0  0  0  0  0  0  0  0  0
   11.7741   45.5237  131.7208 C   0  0  0  0  0  0  0  0  0  0  0  0
   12.4764   45.8319  132.8400 C   0  0  0  0  0  0  0  0  0  0  0  0
   12.9526   44.8934  133.7134 C   0  0  0  0  0  0  0  0  0  0  0  0
   12.6834   43.5687  133.4050 C   0  0  0  0  0  0  0  0  0  0  0  0
   11.9788   43.2270  132.2852 C   0  0  0  0  0  0  0  0  0  0  0  0
    8.2924   48.1850  128.9241 C   0  0  0  0  0  0  0  0  0  0  0  0
    5.8133   48.3091  128.8274 C   0  0  0  0  0  0  0  0  0  0  0  0
    7.1318   49.0045  128.5071 C   0  0  0  0  0  0  0  0  0  0  0  0
    7.1686   50.3036  129.3392 C   0  0  0  0  0  0  0  0  0  0  0  0
 37 38  1  0  0  0
 38 39  1  0  0  0
 38 36  1  0  0  0
 36  1  1  0  0  0
  1  2  1  0  0  0
  2  3  1  0  0  0
  3  4  2  0  0  0
  3  6  1  0  0  0
  6  7  1  0  0  0
  6 10  1  0  0  0
 10 11  1  0  0  0
 11 12  2  0  0  0
 12 13  1  0  0  0
 13 14  2  0  0  0
 14 15  1  0  0  0
 14 16  1  0  0  0
 16 17  2  0  0  0
  1 19  1  0  0  0
 19 20  2  0  0  0
 19 21  1  0  0  0
 21 23  1  0  0  0
 23 29  1  0  0  0
 29 30  1  0  0  0
 30 31  2  0  0  0
 31 32  1  0  0  0
 32 33  2  0  0  0
 33 34  1  0  0  0
 34 35  2  0  0  0
 23 24  1  0  0  0
 24 25  1  0  0  0
 24 26  2  0  0  0
 17 11  1  0  0  0
 35 30  1  0  0  0
  2  5  1  0  0  0
  7  8  1  0  0  0
  7  9  1  0  0  0
 15 18  1  0  0  0
 21 22  1  0  0  0
 25 27  1  0  0  0
 25 28  1  0  0  0
M  END
> <minimizedAffinity>
-5.28044

> <CNNscore>
0.1240327507

> <CNNaffinity>
7.1083779335

> <CNN_VS>
0.8816716671

> <CNNaffinity_variance>
0.3568186462

$$$$
[H]SC([H])([H])[C@@]([H])(C(=O)N([H])[C@@]([H])(c1nc([H])c([H])c([H])c1[H])C(C([H])([H])[H])(C([H])([H])[H])C([H])([H])[H])C([H])([H])c1c([H])n([H])c2c([H])c([H])c([H])c([H])c12


 30 32  0  0  0  0  0  0  0  0999 V2000
   10.4246   44.9501  131.0315 N   0  0  0  0  0  0  0  0  0  0  0  0
    8.9844   44.8336  131.0341 C   0  0  0  0  0  0  0  0  0  0  0  0
    8.3505   44.8780  132.1223 O   0  0  0  0  0  0  0  0  0  0  0  0
   10.9329   44.9102  130.1310 H   0  0  0  0  0  0  0  0  0  0  0  0
   11.1059   45.1161  132.2819 C   0  0  0  0  0  0  0  0  0  0  0  0
   10.3119   45.9633  133.2367 C   0  0  0  0  0  0  0  0  0  0  0  0
   10.0821   47.3051  133.0160 C   0  0  0  0  0  0  0  0  0  0  0  0
    9.3527   48.0709  133.8981 C   0  0  0  0  0  0  0  0  0  0  0  0
    8.8339   47.5070  135.0275 C   0  0  0  0  0  0  0  0  0  0  0  0
    9.0708   46.1639  135.2366 C   0  0  0  0  0  0  0  0  0  0  0  0
    9.7859   45.4353  134.3620 N   0  0  0  0  0  0  0  0  0  0  0  0
   10.2680   43.0737  133.4652 C   0  0  0  0  0  0  0  0  0  0  0  0
   11.4696   43.8553  132.9834 C   0  0  0  0  0  0  0  0  0  0  0  0
   12.3350   44.1495  134.1819 C   0  0  0  0  0  0  0  0  0  0  0  0
   12.1855   42.9566  131.9855 C   0  0  0  0  0  0  0  0  0  0  0  0
    8.3254   44.6666  129.7238 C   0  0  0  0  0  0  0  0  0  0  0  0
    8.8860   43.3825  129.1240 C   0  0  0  0  0  0  0  0  0  0  0  0
   10.2160   43.6987  127.9607 S   0  0  0  0  0  0  0  0  0  0  0  0
   10.1283   42.9194  126.7946 H   0  0  0  0  0  0  0  0  0  0  0  0
    8.5309   45.8421  128.8376 C   0  0  0  0  0  0  0  0  0  0  0  0
    7.6451   46.9802  129.0764 C   0  0  0  0  0  0  0  0  0  0  0  0
    8.1065   48.1563  129.6843 C   0  0  0  0  0  0  0  0  0  0  0  0
    9.3461   48.5294  130.1515 C   0  0  0  0  0  0  0  0  0  0  0  0
    9.4787   49.7811  130.7105 C   0  0  0  0  0  0  0  0  0  0  0  0
    8.4139   50.6294  130.8004 C   0  0  0  0  0  0  0  0  0  0  0  0
    7.1804   50.2417  130.3288 C   0  0  0  0  0  0  0  0  0  0  0  0
    7.0157   48.9913  129.7622 C   0  0  0  0  0  0  0  0  0  0  0  0
    5.9432   48.3843  129.2409 N   0  0  0  0  0  0  0  0  0  0  0  0
    6.2957   47.1658  128.8184 C   0  0  0  0  0  0  0  0  0  0  0  0
    4.9746   48.7781  129.1645 H   0  0  0  0  0  0  0  0  0  0  0  0
 12 13  1  0  0  0
 13 14  1  0  0  0
 13 15  1  0  0  0
 13  5  1  0  0  0
  5  1  1  0  0  0
  1  2  1  0  0  0
  2  3  2  0  0  0
  2 16  1  0  0  0
 16 17  1  0  0  0
 17 18  1  0  0  0
 16 20  1  0  0  0
 20 21  1  0  0  0
 21 22  1  0  0  0
 22 23  2  0  0  0
 23 24  1  0  0  0
 24 25  2  0  0  0
 25 26  1  0  0  0
 26 27  2  0  0  0
 27 28  1  0  0  0
 28 29  1  0  0  0
  5  6  1  0  0  0
  6  7  2  0  0  0
  7  8  1  0  0  0
  8  9  2  0  0  0
  9 10  1  0  0  0
 10 11  2  0  0  0
 29 21  2  0  0  0
 11  6  1  0  0  0
 27 22  1  0  0  0
  1  4  1  0  0  0
 18 19  1  0  0  0
 28 30  1  0  0  0
M  END
> <minimizedAffinity>
-7.31327

> <CNNscore>
0.4924508929

> <CNNaffinity>
7.8631706238

> <CNN_VS>
3.8722252846

> <CNNaffinity_variance>
0.2906371355

$$$$
[H]SC([H])([H])[C@@]([H])(C(=O)N([H])[C@@]([H])(c1nc([H])c([H])c([H])c1[H])C(C([H])([H])[H])(C([H])([H])[H])C([H])([H])[H])C([H])([H])c1c([H])n([H])c2c([H])c([H])c([H])c([H])c12


 30 32  0  0  0  0  0  0  0  0999 V2000
   10.7669   46.9781  132.0724 N   0  0  0  0  0  0  0  0  0  0  0  0
    9.7709   48.0162  132.2070 C   0  0  0  0  0  0  0  0  0  0  0  0
    9.0241   48.0454  133.2216 O   0  0  0  0  0  0  0  0  0  0  0  0
   11.3724   46.9649  131.2333 H   0  0  0  0  0  0  0  0  0  0  0  0
   10.8833   45.9948  133.1090 C   0  0  0  0  0  0  0  0  0  0  0  0
    9.9947   44.8100  132.8506 C   0  0  0  0  0  0  0  0  0  0  0  0
    8.7183   44.7195  133.3648 C   0  0  0  0  0  0  0  0  0  0  0  0
    7.9135   43.6290  133.1208 C   0  0  0  0  0  0  0  0  0  0  0  0
    8.3714   42.5986  132.3517 C   0  0  0  0  0  0  0  0  0  0  0  0
    9.6499   42.7015  131.8431 C   0  0  0  0  0  0  0  0  0  0  0  0
   10.4184   43.7755  132.0943 N   0  0  0  0  0  0  0  0  0  0  0  0
   12.2844   44.1438  134.0495 C   0  0  0  0  0  0  0  0  0  0  0  0
   12.2601   45.4880  133.3571 C   0  0  0  0  0  0  0  0  0  0  0  0
   13.0327   46.4582  134.2135 C   0  0  0  0  0  0  0  0  0  0  0  0
   12.9303   45.2796  132.0068 C   0  0  0  0  0  0  0  0  0  0  0  0
    9.6886   49.0083  131.1170 C   0  0  0  0  0  0  0  0  0  0  0  0
    8.5150   49.9196  131.4562 C   0  0  0  0  0  0  0  0  0  0  0  0
    7.4807   50.2572  130.0285 S   0  0  0  0  0  0  0  0  0  0  0  0
    7.0923   51.6044  129.9326 H   0  0  0  0  0  0  0  0  0  0  0  0
    9.5410   48.3675  129.7839 C   0  0  0  0  0  0  0  0  0  0  0  0
    8.8598   47.0742  129.7728 C   0  0  0  0  0  0  0  0  0  0  0  0
    9.4528   45.9355  129.2093 C   0  0  0  0  0  0  0  0  0  0  0  0
   10.6723   45.7329  128.6045 C   0  0  0  0  0  0  0  0  0  0  0  0
   10.9651   44.4688  128.1425 C   0  0  0  0  0  0  0  0  0  0  0  0
   10.0740   43.4447  128.2786 C   0  0  0  0  0  0  0  0  0  0  0  0
    8.8582   43.6632  128.8856 C   0  0  0  0  0  0  0  0  0  0  0  0
    8.5354   44.9212  129.3597 C   0  0  0  0  0  0  0  0  0  0  0  0
    7.4420   45.3877  129.9739 N   0  0  0  0  0  0  0  0  0  0  0  0
    7.6112   46.6879  130.2351 C   0  0  0  0  0  0  0  0  0  0  0  0
    6.5807   44.8434  130.2210 H   0  0  0  0  0  0  0  0  0  0  0  0
 12 13  1  0  0  0
 13 14  1  0  0  0
 13 15  1  0  0  0
 13  5  1  0  0  0
  5  1  1  0  0  0
  1  2  1  0  0  0
  2  3  2  0  0  0
  2 16  1  0  0  0
 16 17  1  0  0  0
 17 18  1  0  0  0
 16 20  1  0  0  0
 20 21  1  0  0  0
 21 22  1  0  0  0
 22 23  2  0  0  0
 23 24  1  0  0  0
 24 25  2  0  0  0
 25 26  1  0  0  0
 26 27  2  0  0  0
 27 28  1  0  0  0
 28 29  1  0  0  0
  5  6  1  0  0  0
  6  7  2  0  0  0
  7  8  1  0  0  0
  8  9  2  0  0  0
  9 10  1  0  0  0
 10 11  2  0  0  0
 29 21  2  0  0  0
 11  6  1  0  0  0
 27 22  1  0  0  0
  1  4  1  0  0  0
 18 19  1  0  0  0
 28 30  1  0  0  0
M  END
> <minimizedAffinity>
-6.76979

> <CNNscore>
0.4407821000

> <CNNaffinity>
7.6061477661

> <CNN_VS>
3.3526537418

> <CNNaffinity_variance>
0.2236503065

$$$$
[H]SC([H])([H])[C@@]([H])(C(=O)N([H])[C@@]([H])(c1nc([H])c([H])c([H])c1[H])C(C([H])([H])[H])(C([H])([H])[H])C([H])([H])[H])C([H])([H])c1c([H])n([H])c2c([H])c([H])c([H])c([H])c12


 30 32  0  0  0  0  0  0  0  0999 V2000
    9.2298   45.9656  130.5253 N   0  0  0  0  0  0  0  0  0  0  0  0
    9.8499   45.4746  129.3161 C   0  0  0  0  0  0  0  0  0  0  0  0
   10.5362   46.2514  128.5994 O   0  0  0  0  0  0  0  0  0  0  0  0
    8.6675   45.3175  131.1037 H   0  0  0  0  0  0  0  0  0  0  0  0
    9.4129   47.3412  130.8853 C   0  0  0  0  0  0  0  0  0  0  0  0
    8.3101   48.2069  130.3428 C   0  0  0  0  0  0  0  0  0  0  0  0
    8.4453   49.5723  130.2037 C   0  0  0  0  0  0  0  0  0  0  0  0
    7.4278   50.3550  129.7050 C   0  0  0  0  0  0  0  0  0  0  0  0
    6.2452   49.7846  129.3322 C   0  0  0  0  0  0  0  0  0  0  0  0
    6.1228   48.4179  129.4762 C   0  0  0  0  0  0  0  0  0  0  0  0
    7.1293   47.6731  129.9654 N   0  0  0  0  0  0  0  0  0  0  0  0
    8.9113   48.9263  132.7587 C   0  0  0  0  0  0  0  0  0  0  0  0
    9.5290   47.6097  132.3442 C   0  0  0  0  0  0  0  0  0  0  0  0
   10.9768   47.6312  132.7628 C   0  0  0  0  0  0  0  0  0  0  0  0
    8.7515   46.5282  133.0804 C   0  0  0  0  0  0  0  0  0  0  0  0
    9.6365   44.0516  128.9864 C   0  0  0  0  0  0  0  0  0  0  0  0
    8.2546   43.6920  129.5193 C   0  0  0  0  0  0  0  0  0  0  0  0
    8.2900   42.2450  130.5809 S   0  0  0  0  0  0  0  0  0  0  0  0
    7.2328   41.3523  130.3352 H   0  0  0  0  0  0  0  0  0  0  0  0
   10.7030   43.1795  129.5444 C   0  0  0  0  0  0  0  0  0  0  0  0
   11.6065   43.8144  130.5022 C   0  0  0  0  0  0  0  0  0  0  0  0
   11.3664   43.7665  131.8827 C   0  0  0  0  0  0  0  0  0  0  0  0
   10.3658   43.1835  132.6263 C   0  0  0  0  0  0  0  0  0  0  0  0
   10.4121   43.3201  133.9961 C   0  0  0  0  0  0  0  0  0  0  0  0
   11.4194   44.0129  134.6017 C   0  0  0  0  0  0  0  0  0  0  0  0
   12.4129   44.5906  133.8443 C   0  0  0  0  0  0  0  0  0  0  0  0
   12.3939   44.4708  132.4670 C   0  0  0  0  0  0  0  0  0  0  0  0
   13.2222   44.9301  131.5218 N   0  0  0  0  0  0  0  0  0  0  0  0
   12.7693   44.5477  130.3235 C   0  0  0  0  0  0  0  0  0  0  0  0
   14.0903   45.4988  131.6707 H   0  0  0  0  0  0  0  0  0  0  0  0
 12 13  1  0  0  0
 13 14  1  0  0  0
 13 15  1  0  0  0
 13  5  1  0  0  0
  5  1  1  0  0  0
  1  2  1  0  0  0
  2  3  2  0  0  0
  2 16  1  0  0  0
 16 17  1  0  0  0
 17 18  1  0  0  0
 16 20  1  0  0  0
 20 21  1  0  0  0
 21 22  1  0  0  0
 22 23  2  0  0  0
 23 24  1  0  0  0
 24 25  2  0  0  0
 25 26  1  0  0  0
 26 27  2  0  0  0
 27 28  1  0  0  0
 28 29  1  0  0  0
  5  6  1  0  0  0
  6  7  2  0  0  0
  7  8  1  0  0  0
  8  9  2  0  0  0
  9 10  1  0  0  0
 10 11  2  0  0  0
 29 21  2  0  0  0
 11  6  1  0  0  0
 27 22  1  0  0  0
  1  4  1  0  0  0
 18 19  1  0  0  0
 28 30  1  0  0  0
M  END
> <minimizedAffinity>
-7.01708

> <CNNscore>
0.3960905671

> <CNNaffinity>
7.6687264442

> <CNN_VS>
3.0375101566

> <CNNaffinity_variance>
0.3646423817

$$$$
[H]SC([H])([H])[C@@]([H])(C(=O)N([H])[C@@]([H])(c1nc([H])c([H])c([H])c1[H])C(C([H])([H])[H])(C([H])([H])[H])C([H])([H])[H])C([H])([H])c1c([H])n([H])c2c([H])c([H])c([H])c([H])c12


 30 32  0  0  0  0  0  0  0  0999 V2000
    8.5387   45.8121  131.3602 N   0  0  0  0  0  0  0  0  0  0  0  0
    8.1989   46.9845  130.5870 C   0  0  0  0  0  0  0  0  0  0  0  0
    7.7672   46.8598  129.4096 O   0  0  0  0  0  0  0  0  0  0  0  0
    8.8938   45.9290  132.3251 H   0  0  0  0  0  0  0  0  0  0  0  0
    8.3741   44.5196  130.7623 C   0  0  0  0  0  0  0  0  0  0  0  0
    9.3378   44.3074  129.6282 C   0  0  0  0  0  0  0  0  0  0  0  0
   10.5373   44.9826  129.5438 C   0  0  0  0  0  0  0  0  0  0  0  0
   11.4122   44.7793  128.4999 C   0  0  0  0  0  0  0  0  0  0  0  0
   11.1040   43.8901  127.5114 C   0  0  0  0  0  0  0  0  0  0  0  0
    9.9012   43.2211  127.6077 C   0  0  0  0  0  0  0  0  0  0  0  0
    9.0619   43.4351  128.6358 N   0  0  0  0  0  0  0  0  0  0  0  0
    9.9159   42.8431  131.8044 C   0  0  0  0  0  0  0  0  0  0  0  0
    8.5010   43.3649  131.6921 C   0  0  0  0  0  0  0  0  0  0  0  0
    7.6269   42.2240  131.2383 C   0  0  0  0  0  0  0  0  0  0  0  0
    8.1157   43.8432  133.0845 C   0  0  0  0  0  0  0  0  0  0  0  0
    8.3820   48.2939  131.2437 C   0  0  0  0  0  0  0  0  0  0  0  0
    8.3318   49.3387  130.1352 C   0  0  0  0  0  0  0  0  0  0  0  0
    6.7856   50.2503  130.1286 S   0  0  0  0  0  0  0  0  0  0  0  0
    6.2588   50.4373  128.8393 H   0  0  0  0  0  0  0  0  0  0  0  0
    9.6443   48.3585  132.0259 C   0  0  0  0  0  0  0  0  0  0  0  0
    9.7289   47.4543  133.1713 C   0  0  0  0  0  0  0  0  0  0  0  0
   10.7051   46.4506  133.2453 C   0  0  0  0  0  0  0  0  0  0  0  0
   11.7232   46.0880  132.3932 C   0  0  0  0  0  0  0  0  0  0  0  0
   12.5293   45.0326  132.7581 C   0  0  0  0  0  0  0  0  0  0  0  0
   12.3271   44.3634  133.9298 C   0  0  0  0  0  0  0  0  0  0  0  0
   11.3045   44.7378  134.7713 C   0  0  0  0  0  0  0  0  0  0  0  0
   10.4784   45.7934  134.4327 C   0  0  0  0  0  0  0  0  0  0  0  0
    9.4334   46.3437  135.0618 N   0  0  0  0  0  0  0  0  0  0  0  0
    8.9606   47.3508  134.3206 C   0  0  0  0  0  0  0  0  0  0  0  0
    9.0320   46.0514  135.9851 H   0  0  0  0  0  0  0  0  0  0  0  0
 12 13  1  0  0  0
 13 14  1  0  0  0
 13 15  1  0  0  0
 13  5  1  0  0  0
  5  1  1  0  0  0
  1  2  1  0  0  0
  2  3  2  0  0  0
  2 16  1  0  0  0
 16 17  1  0  0  0
 17 18  1  0  0  0
 16 20  1  0  0  0
 20 21  1  0  0  0
 21 22  1  0  0  0
 22 23  2  0  0  0
 23 24  1  0  0  0
 24 25  2  0  0  0
 25 26  1  0  0  0
 26 27  2  0  0  0
 27 28  1  0  0  0
 28 29  1  0  0  0
  5  6  1  0  0  0
  6  7  2  0  0  0
  7  8  1  0  0  0
  8  9  2  0  0  0
  9 10  1  0  0  0
 10 11  2  0  0  0
 29 21  2  0  0  0
 11  6  1  0  0  0
 27 22  1  0  0  0
  1  4  1  0  0  0
 18 19  1  0  0  0
 28 30  1  0  0  0
M  END
> <minimizedAffinity>
-6.84675

> <CNNscore>
0.3867213726

> <CNNaffinity>
7.7474336624

> <CNN_VS>
2.9960982800

> <CNNaffinity_variance>
0.1848298758

$$$$
[H]SC([H])([H])[C@@]([H])(C(=O)N([H])[C@@]([H])(c1nc([H])c([H])c([H])c1[H])C(C([H])([H])[H])(C([H])([H])[H])C([H])([H])[H])C([H])([H])c1c([H])n([H])c2c([H])c([H])c([H])c([H])c12


 30 32  0  0  0  0  0  0  0  0999 V2000
   10.1181   46.6859  130.5191 N   0  0  0  0  0  0  0  0  0  0  0  0
    9.5315   47.9957  130.3509 C   0  0  0  0  0  0  0  0  0  0  0  0
    9.8628   48.9381  131.1192 O   0  0  0  0  0  0  0  0  0  0  0  0
    9.8358   45.9206  129.8824 H   0  0  0  0  0  0  0  0  0  0  0  0
   11.0748   46.4878  131.5682 C   0  0  0  0  0  0  0  0  0  0  0  0
   10.4126   46.4215  132.9162 C   0  0  0  0  0  0  0  0  0  0  0  0
   10.7513   45.4730  133.8582 C   0  0  0  0  0  0  0  0  0  0  0  0
   10.1376   45.4225  135.0900 C   0  0  0  0  0  0  0  0  0  0  0  0
    9.1653   46.3260  135.4081 C   0  0  0  0  0  0  0  0  0  0  0  0
    8.8359   47.2698  134.4570 C   0  0  0  0  0  0  0  0  0  0  0  0
    9.4480   47.3006  133.2606 N   0  0  0  0  0  0  0  0  0  0  0  0
   11.3354   44.0401  132.0312 C   0  0  0  0  0  0  0  0  0  0  0  0
   11.9406   45.2862  131.4247 C   0  0  0  0  0  0  0  0  0  0  0  0
   13.2752   45.5158  132.0862 C   0  0  0  0  0  0  0  0  0  0  0  0
   12.0967   44.9992  129.9383 C   0  0  0  0  0  0  0  0  0  0  0  0
    8.5534   48.1539  129.2567 C   0  0  0  0  0  0  0  0  0  0  0  0
    8.1813   49.6316  129.2265 C   0  0  0  0  0  0  0  0  0  0  0  0
    6.5798   49.9456  129.9740 S   0  0  0  0  0  0  0  0  0  0  0  0
    5.7939   50.8499  129.2396 H   0  0  0  0  0  0  0  0  0  0  0  0
    7.3675   47.2750  129.4316 C   0  0  0  0  0  0  0  0  0  0  0  0
    7.5586   46.1160  130.3017 C   0  0  0  0  0  0  0  0  0  0  0  0
    8.1835   44.9476  129.8434 C   0  0  0  0  0  0  0  0  0  0  0  0
    8.7285   44.6083  128.6261 C   0  0  0  0  0  0  0  0  0  0  0  0
    9.2787   43.3531  128.4890 C   0  0  0  0  0  0  0  0  0  0  0  0
    9.2849   42.4689  129.5280 C   0  0  0  0  0  0  0  0  0  0  0  0
    8.7357   42.8228  130.7393 C   0  0  0  0  0  0  0  0  0  0  0  0
    8.1760   44.0757  130.9079 C   0  0  0  0  0  0  0  0  0  0  0  0
    7.5877   44.6537  131.9616 N   0  0  0  0  0  0  0  0  0  0  0  0
    7.2043   45.8887  131.6225 C   0  0  0  0  0  0  0  0  0  0  0  0
    7.4395   44.2289  132.9086 H   0  0  0  0  0  0  0  0  0  0  0  0
 12 13  1  0  0  0
 13 14  1  0  0  0
 13 15  1  0  0  0
 13  5  1  0  0  0
  5  1  1  0  0  0
  1  2  1  0  0  0
  2  3  2  0  0  0
  2 16  1  0  0  0
 16 17  1  0  0  0
 17 18  1  0  0  0
 16 20  1  0  0  0
 20 21  1  0  0  0
 21 22  1  0  0  0
 22 23  2  0  0  0
 23 24  1  0  0  0
 24 25  2  0  0  0
 25 26  1  0  0  0
 26 27  2  0  0  0
 27 28  1  0  0  0
 28 29  1  0  0  0
  5  6  1  0  0  0
  6  7  2  0  0  0
  7  8  1  0  0  0
  8  9  2  0  0  0
  9 10  1  0  0  0
 10 11  2  0  0  0
 29 21  2  0  0  0
 11  6  1  0  0  0
 27 22  1  0  0  0
  1  4  1  0  0  0
 18 19  1  0  0  0
 28 30  1  0  0  0
M  END
> <minimizedAffinity>
-5.67432

> <CNNscore>
0.3304174244

> <CNNaffinity>
7.5948204994

> <CNN_VS>
2.5094609261

> <CNNaffinity_variance>
0.2592338026

$$$$
[H]SC([H])([H])[C@@]([H])(C(=O)N([H])[C@@]([H])(c1nc([H])c([H])c([H])c1[H])C(C([H])([H])[H])(C([H])([H])[H])C([H])([H])[H])C([H])([H])c1c([H])n([H])c2c([H])c([H])c([H])c([H])c12


 30 32  0  0  0  0  0  0  0  0999 V2000
    8.9255   44.6927  130.9077 N   0  0  0  0  0  0  0  0  0  0  0  0
    8.4568   43.3374  131.0845 C   0  0  0  0  0  0  0  0  0  0  0  0
    8.1484   42.6410  130.0806 O   0  0  0  0  0  0  0  0  0  0  0  0
    9.1737   45.2541  131.7408 H   0  0  0  0  0  0  0  0  0  0  0  0
    9.0302   45.2187  129.5782 C   0  0  0  0  0  0  0  0  0  0  0  0
    8.6726   46.6781  129.5304 C   0  0  0  0  0  0  0  0  0  0  0  0
    9.3317   47.6239  130.2872 C   0  0  0  0  0  0  0  0  0  0  0  0
    8.9951   48.9582  130.2346 C   0  0  0  0  0  0  0  0  0  0  0  0
    7.9852   49.3779  129.4181 C   0  0  0  0  0  0  0  0  0  0  0  0
    7.3339   48.4219  128.6661 C   0  0  0  0  0  0  0  0  0  0  0  0
    7.6790   47.1244  128.7332 N   0  0  0  0  0  0  0  0  0  0  0  0
   10.7819   46.2585  128.1207 C   0  0  0  0  0  0  0  0  0  0  0  0
   10.3582   45.0520  128.9281 C   0  0  0  0  0  0  0  0  0  0  0  0
   10.3466   43.8627  128.0023 C   0  0  0  0  0  0  0  0  0  0  0  0
   11.3986   44.8931  130.0274 C   0  0  0  0  0  0  0  0  0  0  0  0
    8.3673   42.8371  132.4705 C   0  0  0  0  0  0  0  0  0  0  0  0
    7.4025   41.6577  132.4377 C   0  0  0  0  0  0  0  0  0  0  0  0
    6.7188   41.2925  134.0567 S   0  0  0  0  0  0  0  0  0  0  0  0
    6.6790   39.9173  134.3434 H   0  0  0  0  0  0  0  0  0  0  0  0
    7.9369   43.8943  133.4228 C   0  0  0  0  0  0  0  0  0  0  0  0
    8.8645   45.0110  133.5940 C   0  0  0  0  0  0  0  0  0  0  0  0
   10.2498   44.8104  133.6745 C   0  0  0  0  0  0  0  0  0  0  0  0
   11.0236   43.6740  133.6123 C   0  0  0  0  0  0  0  0  0  0  0  0
   12.3890   43.8120  133.7287 C   0  0  0  0  0  0  0  0  0  0  0  0
   12.9615   45.0384  133.9009 C   0  0  0  0  0  0  0  0  0  0  0  0
   12.1741   46.1657  133.9614 C   0  0  0  0  0  0  0  0  0  0  0  0
   10.8003   46.0595  133.8477 C   0  0  0  0  0  0  0  0  0  0  0  0
    9.8308   46.9813  133.8747 N   0  0  0  0  0  0  0  0  0  0  0  0
    8.6492   46.3743  133.7236 C   0  0  0  0  0  0  0  0  0  0  0  0
    9.9518   48.0159  133.9937 H   0  0  0  0  0  0  0  0  0  0  0  0
 12 13  1  0  0  0
 13 14  1  0  0  0
 13 15  1  0  0  0
 13  5  1  0  0  0
  5  1  1  0  0  0
  1  2  1  0  0  0
  2  3  2  0  0  0
  2 16  1  0  0  0
 16 17  1  0  0  0
 17 18  1  0  0  0
 16 20  1  0  0  0
 20 21  1  0  0  0
 21 22  1  0  0  0
 22 23  2  0  0  0
 23 24  1  0  0  0
 24 25  2  0  0  0
 25 26  1  0  0  0
 26 27  2  0  0  0
 27 28  1  0  0  0
 28 29  1  0  0  0
  5  6  1  0  0  0
  6  7  2  0  0  0
  7  8  1  0  0  0
  8  9  2  0  0  0
  9 10  1  0  0  0
 10 11  2  0  0  0
 29 21  2  0  0  0
 11  6  1  0  0  0
 27 22  1  0  0  0
  1  4  1  0  0  0
 18 19  1  0  0  0
 28 30  1  0  0  0
M  END
> <minimizedAffinity>
-3.09080

> <CNNscore>
0.3102585673

> <CNNaffinity>
7.4476003647

> <CNN_VS>
2.3106818199

> <CNNaffinity_variance>
0.2040090114

$$$$
[H]SC([H])([H])[C@@]([H])(C(=O)N([H])[C@@]([H])(c1nc([H])c([H])c([H])c1[H])C(C([H])([H])[H])(C([H])([H])[H])C([H])([H])[H])C([H])([H])c1c([H])n([H])c2c([H])c([H])c([H])c([H])c12


 30 32  0  0  0  0  0  0  0  0999 V2000
    9.0269   46.3229  132.0900 N   0  0  0  0  0  0  0  0  0  0  0  0
   10.2474   45.7642  132.6246 C   0  0  0  0  0  0  0  0  0  0  0  0
   11.3604   46.2646  132.3101 O   0  0  0  0  0  0  0  0  0  0  0  0
    8.1198   45.9012  132.3550 H   0  0  0  0  0  0  0  0  0  0  0  0
    9.1124   47.4470  131.2043 C   0  0  0  0  0  0  0  0  0  0  0  0
    7.9449   47.4967  130.2586 C   0  0  0  0  0  0  0  0  0  0  0  0
    6.8006   46.7539  130.4601 C   0  0  0  0  0  0  0  0  0  0  0  0
    5.7373   46.8082  129.5866 C   0  0  0  0  0  0  0  0  0  0  0  0
    5.7963   47.6123  128.4854 C   0  0  0  0  0  0  0  0  0  0  0  0
    6.9464   48.3503  128.2953 C   0  0  0  0  0  0  0  0  0  0  0  0
    7.9726   48.2819  129.1610 N   0  0  0  0  0  0  0  0  0  0  0  0
    8.1194   49.7313  131.4682 C   0  0  0  0  0  0  0  0  0  0  0  0
    9.2211   48.7751  131.8665 C   0  0  0  0  0  0  0  0  0  0  0  0
   10.5375   49.4266  131.5283 C   0  0  0  0  0  0  0  0  0  0  0  0
    9.0733   48.5616  133.3660 C   0  0  0  0  0  0  0  0  0  0  0  0
   10.1112   44.6094  133.5341 C   0  0  0  0  0  0  0  0  0  0  0  0
   11.0782   44.8562  134.6860 C   0  0  0  0  0  0  0  0  0  0  0  0
   12.6706   44.0726  134.4176 S   0  0  0  0  0  0  0  0  0  0  0  0
   13.1743   43.4355  135.5645 H   0  0  0  0  0  0  0  0  0  0  0  0
   10.3695   43.3180  132.8449 C   0  0  0  0  0  0  0  0  0  0  0  0
    9.7029   43.1413  131.5560 C   0  0  0  0  0  0  0  0  0  0  0  0
   10.3003   43.5536  130.3565 C   0  0  0  0  0  0  0  0  0  0  0  0
   11.5128   44.1449  130.0843 C   0  0  0  0  0  0  0  0  0  0  0  0
   11.8129   44.4347  128.7717 C   0  0  0  0  0  0  0  0  0  0  0  0
   10.9356   44.1454  127.7676 C   0  0  0  0  0  0  0  0  0  0  0  0
    9.7267   43.5542  128.0559 C   0  0  0  0  0  0  0  0  0  0  0  0
    9.3968   43.2511  129.3639 C   0  0  0  0  0  0  0  0  0  0  0  0
    8.3074   42.6886  129.9000 N   0  0  0  0  0  0  0  0  0  0  0  0
    8.4658   42.6102  131.2252 C   0  0  0  0  0  0  0  0  0  0  0  0
    7.4562   42.3554  129.3867 H   0  0  0  0  0  0  0  0  0  0  0  0
 12 13  1  0  0  0
 13 14  1  0  0  0
 13 15  1  0  0  0
 13  5  1  0  0  0
  5  1  1  0  0  0
  1  2  1  0  0  0
  2  3  2  0  0  0
  2 16  1  0  0  0
 16 17  1  0  0  0
 17 18  1  0  0  0
 16 20  1  0  0  0
 20 21  1  0  0  0
 21 22  1  0  0  0
 22 23  2  0  0  0
 23 24  1  0  0  0
 24 25  2  0  0  0
 25 26  1  0  0  0
 26 27  2  0  0  0
 27 28  1  0  0  0
 28 29  1  0  0  0
  5  6  1  0  0  0
  6  7  2  0  0  0
  7  8  1  0  0  0
  8  9  2  0  0  0
  9 10  1  0  0  0
 10 11  2  0  0  0
 29 21  2  0  0  0
 11  6  1  0  0  0
 27 22  1  0  0  0
  1  4  1  0  0  0
 18 19  1  0  0  0
 28 30  1  0  0  0
M  END
> <minimizedAffinity>
-7.16763

> <CNNscore>
0.2901274264

> <CNNaffinity>
7.5791082382

> <CNN_VS>
2.1989071369

> <CNNaffinity_variance>
0.1234302297

$$$$
[H]SC([H])([H])[C@@]([H])(C(=O)N([H])[C@@]([H])(c1nc([H])c([H])c([H])c1[H])C(C([H])([H])[H])(C([H])([H])[H])C([H])([H])[H])C([H])([H])c1c([H])n([H])c2c([H])c([H])c([H])c([H])c12


 30 32  0  0  0  0  0  0  0  0999 V2000
   10.1001   44.4091  131.1063 N   0  0  0  0  0  0  0  0  0  0  0  0
   10.4423   43.0471  131.4464 C   0  0  0  0  0  0  0  0  0  0  0  0
   10.2808   42.1267  130.6009 O   0  0  0  0  0  0  0  0  0  0  0  0
   10.2360   45.1550  131.8106 H   0  0  0  0  0  0  0  0  0  0  0  0
    9.5794   44.6840  129.7992 C   0  0  0  0  0  0  0  0  0  0  0  0
    8.8218   45.9820  129.7667 C   0  0  0  0  0  0  0  0  0  0  0  0
    7.4514   46.0325  129.6204 C   0  0  0  0  0  0  0  0  0  0  0  0
    6.7684   47.2280  129.5924 C   0  0  0  0  0  0  0  0  0  0  0  0
    7.4461   48.4067  129.7111 C   0  0  0  0  0  0  0  0  0  0  0  0
    8.8166   48.3425  129.8571 C   0  0  0  0  0  0  0  0  0  0  0  0
    9.4631   47.1641  129.8816 N   0  0  0  0  0  0  0  0  0  0  0  0
   12.0071   44.5554  129.1964 C   0  0  0  0  0  0  0  0  0  0  0  0
   10.5863   44.7150  128.7040 C   0  0  0  0  0  0  0  0  0  0  0  0
   10.5063   46.0181  127.9509 C   0  0  0  0  0  0  0  0  0  0  0  0
   10.3195   43.5263  127.7919 C   0  0  0  0  0  0  0  0  0  0  0  0
   10.9770   42.8114  132.8020 C   0  0  0  0  0  0  0  0  0  0  0  0
    9.7753   42.7988  133.7393 C   0  0  0  0  0  0  0  0  0  0  0  0
    8.2176   42.7554  132.8483 S   0  0  0  0  0  0  0  0  0  0  0  0
    7.2506   43.6245  133.3816 H   0  0  0  0  0  0  0  0  0  0  0  0
   11.9883   43.8287  133.1918 C   0  0  0  0  0  0  0  0  0  0  0  0
   11.6424   45.2165  132.8899 C   0  0  0  0  0  0  0  0  0  0  0  0
   10.6309   45.8908  133.5884 C   0  0  0  0  0  0  0  0  0  0  0  0
    9.8022   45.5030  134.6164 C   0  0  0  0  0  0  0  0  0  0  0  0
    8.8903   46.4177  135.0947 C   0  0  0  0  0  0  0  0  0  0  0  0
    8.8079   47.6730  134.5665 C   0  0  0  0  0  0  0  0  0  0  0  0
    9.6435   48.0459  133.5384 C   0  0  0  0  0  0  0  0  0  0  0  0
   10.5694   47.1500  133.0370 C   0  0  0  0  0  0  0  0  0  0  0  0
   11.4774   47.2608  132.0604 N   0  0  0  0  0  0  0  0  0  0  0  0
   12.1406   46.1053  131.9499 C   0  0  0  0  0  0  0  0  0  0  0  0
   11.6586   48.1045  131.4650 H   0  0  0  0  0  0  0  0  0  0  0  0
 12 13  1  0  0  0
 13 14  1  0  0  0
 13 15  1  0  0  0
 13  5  1  0  0  0
  5  1  1  0  0  0
  1  2  1  0  0  0
  2  3  2  0  0  0
  2 16  1  0  0  0
 16 17  1  0  0  0
 17 18  1  0  0  0
 16 20  1  0  0  0
 20 21  1  0  0  0
 21 22  1  0  0  0
 22 23  2  0  0  0
 23 24  1  0  0  0
 24 25  2  0  0  0
 25 26  1  0  0  0
 26 27  2  0  0  0
 27 28  1  0  0  0
 28 29  1  0  0  0
  5  6  1  0  0  0
  6  7  2  0  0  0
  7  8  1  0  0  0
  8  9  2  0  0  0
  9 10  1  0  0  0
 10 11  2  0  0  0
 29 21  2  0  0  0
 11  6  1  0  0  0
 27 22  1  0  0  0
  1  4  1  0  0  0
 18 19  1  0  0  0
 28 30  1  0  0  0
M  END
> <minimizedAffinity>
-6.79987

> <CNNscore>
0.2845875919

> <CNNaffinity>
7.4970588684

> <CNN_VS>
2.1335699558

> <CNNaffinity_variance>
0.2734730840

$$$$
[H]SC([H])([H])[C@@]([H])(C(=O)N([H])[C@@]([H])(c1nc([H])c([H])c([H])c1[H])C(C([H])([H])[H])(C([H])([H])[H])C([H])([H])[H])C([H])([H])c1c([H])n([H])c2c([H])c([H])c([H])c([H])c12


 30 32  0  0  0  0  0  0  0  0999 V2000
   10.7122   46.7557  131.2168 N   0  0  0  0  0  0  0  0  0  0  0  0
    9.9915   48.0044  131.1210 C   0  0  0  0  0  0  0  0  0  0  0  0
    9.7802   48.6912  132.1562 O   0  0  0  0  0  0  0  0  0  0  0  0
   10.8772   46.2007  130.3591 H   0  0  0  0  0  0  0  0  0  0  0  0
   11.1757   46.3233  132.5026 C   0  0  0  0  0  0  0  0  0  0  0  0
   10.0411   46.1674  133.4764 C   0  0  0  0  0  0  0  0  0  0  0  0
   10.1083   46.6430  134.7691 C   0  0  0  0  0  0  0  0  0  0  0  0
    9.0620   46.4944  135.6521 C   0  0  0  0  0  0  0  0  0  0  0  0
    7.9182   45.8626  135.2581 C   0  0  0  0  0  0  0  0  0  0  0  0
    7.8635   45.3917  133.9624 C   0  0  0  0  0  0  0  0  0  0  0  0
    8.8971   45.5477  133.1172 N   0  0  0  0  0  0  0  0  0  0  0  0
   12.8111   44.8807  131.2704 C   0  0  0  0  0  0  0  0  0  0  0  0
   11.9589   45.0582  132.5070 C   0  0  0  0  0  0  0  0  0  0  0  0
   11.0385   43.8686  132.6033 C   0  0  0  0  0  0  0  0  0  0  0  0
   12.9252   45.1123  133.6814 C   0  0  0  0  0  0  0  0  0  0  0  0
    9.5355   48.4110  129.7771 C   0  0  0  0  0  0  0  0  0  0  0  0
    8.6994   49.6703  129.9724 C   0  0  0  0  0  0  0  0  0  0  0  0
    6.9585   49.3902  129.6363 S   0  0  0  0  0  0  0  0  0  0  0  0
    6.3656   50.4232  128.8905 H   0  0  0  0  0  0  0  0  0  0  0  0
    8.7804   47.3311  129.0893 C   0  0  0  0  0  0  0  0  0  0  0  0
    9.5375   46.1164  128.7925 C   0  0  0  0  0  0  0  0  0  0  0  0
    9.1949   44.8799  129.3576 C   0  0  0  0  0  0  0  0  0  0  0  0
    8.1883   44.5048  130.2179 C   0  0  0  0  0  0  0  0  0  0  0  0
    8.1189   43.1828  130.5979 C   0  0  0  0  0  0  0  0  0  0  0  0
    9.0207   42.2686  130.1367 C   0  0  0  0  0  0  0  0  0  0  0  0
   10.0219   42.6592  129.2769 C   0  0  0  0  0  0  0  0  0  0  0  0
   10.1176   43.9792  128.8773 C   0  0  0  0  0  0  0  0  0  0  0  0
   10.9804   44.6041  128.0675 N   0  0  0  0  0  0  0  0  0  0  0  0
   10.6527   45.8984  127.9984 C   0  0  0  0  0  0  0  0  0  0  0  0
   11.7889   44.1720  127.5588 H   0  0  0  0  0  0  0  0  0  0  0  0
 12 13  1  0  0  0
 13 14  1  0  0  0
 13 15  1  0  0  0
 13  5  1  0  0  0
  5  1  1  0  0  0
  1  2  1  0  0  0
  2  3  2  0  0  0
  2 16  1  0  0  0
 16 17  1  0  0  0
 17 18  1  0  0  0
 16 20  1  0  0  0
 20 21  1  0  0  0
 21 22  1  0  0  0
 22 23  2  0  0  0
 23 24  1  0  0  0
 24 25  2  0  0  0
 25 26  1  0  0  0
 26 27  2  0  0  0
 27 28  1  0  0  0
 28 29  1  0  0  0
  5  6  1  0  0  0
  6  7  2  0  0  0
  7  8  1  0  0  0
  8  9  2  0  0  0
  9 10  1  0  0  0
 10 11  2  0  0  0
 29 21  2  0  0  0
 11  6  1  0  0  0
 27 22  1  0  0  0
  1  4  1  0  0  0
 18 19  1  0  0  0
 28 30  1  0  0  0
M  END
> <minimizedAffinity>
-4.73538

> <CNNscore>
0.2829468250

> <CNNaffinity>
7.4277763367

> <CNN_VS>
2.1016657352

> <CNNaffinity_variance>
0.1089951545

$$$$
[H]c1nc(C(=O)N([H])c2c([H])c([H])c(N3C([H])([H])C([H])([H])N(C([H])([H])[H])C([H])([H])C3([H])[H])c([H])c2S(=O)(=O)c2c([H])c([H])c(F)c([H])c2[H])n([H])c1C#N


 35 38  0  0  0  0  0  0  0  0999 V2000
    7.7107   46.0015  130.1404 C   0  0  0  0  0  0  0  0  0  0  0  0
    6.8682   46.2948  129.1216 C   0  0  0  0  0  0  0  0  0  0  0  0
    6.7931   47.5514  128.5245 C   0  0  0  0  0  0  0  0  0  0  0  0
    7.6230   48.5416  129.0029 C   0  0  0  0  0  0  0  0  0  0  0  0
    8.5109   48.3047  130.0497 C   0  0  0  0  0  0  0  0  0  0  0  0
    8.5220   47.0235  130.5861 C   0  0  0  0  0  0  0  0  0  0  0  0
    7.3669   41.6055  132.1225 C   0  0  0  0  0  0  0  0  0  0  0  0
    8.6225   42.2784  131.9971 N   0  0  0  0  0  0  0  0  0  0  0  0
    8.6619   43.5594  132.6836 C   0  0  0  0  0  0  0  0  0  0  0  0
    7.5952   44.4922  132.1496 C   0  0  0  0  0  0  0  0  0  0  0  0
    7.7955   44.7031  130.7423 N   0  0  0  0  0  0  0  0  0  0  0  0
    8.0990   43.5417  129.9321 C   0  0  0  0  0  0  0  0  0  0  0  0
    8.9405   42.5057  130.6238 C   0  0  0  0  0  0  0  0  0  0  0  0
    7.6599   49.7892  128.4124 N   0  0  0  0  0  0  0  0  0  0  0  0
    6.9628   50.9339  128.8017 C   0  0  0  0  0  0  0  0  0  0  0  0
    6.1960   50.9748  129.7792 O   0  0  0  0  0  0  0  0  0  0  0  0
    8.2603   49.9261  127.5393 H   0  0  0  0  0  0  0  0  0  0  0  0
    7.0829   52.2126  128.0684 C   0  0  0  0  0  0  0  0  0  0  0  0
    6.8758   53.4425  128.5578 N   0  0  0  0  0  0  0  0  0  0  0  0
    7.0756   54.3545  127.5953 C   0  0  0  0  0  0  0  0  0  0  0  0
    7.4236   53.6190  126.4612 C   0  0  0  0  0  0  0  0  0  0  0  0
    7.4192   52.3217  126.7802 N   0  0  0  0  0  0  0  0  0  0  0  0
    7.6356   51.5440  126.1441 H   0  0  0  0  0  0  0  0  0  0  0  0
    7.7270   54.2071  125.1859 C   0  0  0  0  0  0  0  0  0  0  0  0
    7.9620   54.6614  124.1583 N   0  0  0  0  0  0  0  0  0  0  0  0
    9.5426   49.4603  130.7942 S   0  0  0  0  0  0  0  0  0  0  0  0
   10.6354   49.8495  129.7886 O   0  0  0  0  0  0  0  0  0  0  0  0
    8.7482   50.7674  130.9193 O   0  0  0  0  0  0  0  0  0  0  0  0
   10.2962   49.0079  132.2584 C   0  0  0  0  0  0  0  0  0  0  0  0
   10.8971   47.8008  132.4474 C   0  0  0  0  0  0  0  0  0  0  0  0
   11.5087   47.4508  133.6502 C   0  0  0  0  0  0  0  0  0  0  0  0
   11.5172   48.3457  134.7014 C   0  0  0  0  0  0  0  0  0  0  0  0
   12.1214   48.0024  135.8924 F   0  0  0  0  0  0  0  0  0  0  0  0
   10.9175   49.5595  134.5239 C   0  0  0  0  0  0  0  0  0  0  0  0
   10.3223   49.8768  133.3268 C   0  0  0  0  0  0  0  0  0  0  0  0
  7  8  1  0  0  0
  8  9  1  0  0  0
  9 10  1  0  0  0
 10 11  1  0  0  0
 11 12  1  0  0  0
 12 13  1  0  0  0
 11  1  1  0  0  0
  1  2  2  0  0  0
  2  3  1  0  0  0
  3  4  2  0  0  0
  4 14  1  0  0  0
 14 15  1  0  0  0
 15 16  2  0  0  0
 15 18  1  0  0  0
 18 19  2  0  0  0
 19 20  1  0  0  0
 20 21  2  0  0  0
 21 22  1  0  0  0
 21 24  1  0  0  0
 24 25  3  0  0  0
  4  5  1  0  0  0
  5  6  2  0  0  0
  5 26  1  0  0  0
 26 27  2  0  0  0
 26 28  2  0  0  0
 26 29  1  0  0  0
 29 30  2  0  0  0
 30 31  1  0  0  0
 31 32  2  0  0  0
 32 33  1  0  0  0
 32 34  1  0  0  0
 34 35  2  0  0  0
 13  8  1  0  0  0
  6  1  1  0  0  0
 35 29  1  0  0  0
 22 18  1  0  0  0
 14 17  1  0  0  0
 22 23  1  0  0  0
M  END
> <minimizedAffinity>
8.76328

> <CNNscore>
0.5458299518

> <CNNaffinity>
7.5243248940

> <CNN_VS>
4.1070017815

> <CNNaffinity_variance>
1.2913997173

$$$$
[H]c1nc(C(=O)N([H])c2c([H])c([H])c(N3C([H])([H])C([H])([H])N(C([H])([H])[H])C([H])([H])C3([H])[H])c([H])c2S(=O)(=O)c2c([H])c([H])c(F)c([H])c2[H])n([H])c1C#N


 35 38  0  0  0  0  0  0  0  0999 V2000
    8.9764   44.5247  131.2594 C   0  0  0  0  0  0  0  0  0  0  0  0
    7.9687   44.7279  130.3779 C   0  0  0  0  0  0  0  0  0  0  0  0
    7.4328   45.9835  130.1000 C   0  0  0  0  0  0  0  0  0  0  0  0
    7.9620   47.0697  130.7620 C   0  0  0  0  0  0  0  0  0  0  0  0
    8.9982   46.9276  131.6819 C   0  0  0  0  0  0  0  0  0  0  0  0
    9.4741   45.6408  131.8981 C   0  0  0  0  0  0  0  0  0  0  0  0
   10.3611   40.0777  132.5547 C   0  0  0  0  0  0  0  0  0  0  0  0
   11.1628   40.8960  131.6987 N   0  0  0  0  0  0  0  0  0  0  0  0
   11.5530   42.1578  132.3062 C   0  0  0  0  0  0  0  0  0  0  0  0
   10.3356   42.9700  132.6959 C   0  0  0  0  0  0  0  0  0  0  0  0
    9.5351   43.2328  131.5318 N   0  0  0  0  0  0  0  0  0  0  0  0
    9.3090   42.1326  130.6175 C   0  0  0  0  0  0  0  0  0  0  0  0
   10.4710   41.1883  130.4843 C   0  0  0  0  0  0  0  0  0  0  0  0
    7.5353   48.3531  130.4832 N   0  0  0  0  0  0  0  0  0  0  0  0
    7.6979   49.0621  129.2921 C   0  0  0  0  0  0  0  0  0  0  0  0
    8.2635   48.5996  128.2865 O   0  0  0  0  0  0  0  0  0  0  0  0
    7.0428   48.9083  131.2518 H   0  0  0  0  0  0  0  0  0  0  0  0
    7.2013   50.4455  129.1289 C   0  0  0  0  0  0  0  0  0  0  0  0
    6.3782   51.1067  129.9538 N   0  0  0  0  0  0  0  0  0  0  0  0
    6.1471   52.3378  129.4750 C   0  0  0  0  0  0  0  0  0  0  0  0
    6.8801   52.4126  128.2894 C   0  0  0  0  0  0  0  0  0  0  0  0
    7.5091   51.2483  128.1066 N   0  0  0  0  0  0  0  0  0  0  0  0
    8.1216   51.0119  127.3158 H   0  0  0  0  0  0  0  0  0  0  0  0
    6.9185   53.5722  127.4421 C   0  0  0  0  0  0  0  0  0  0  0  0
    6.9604   54.4891  126.7529 N   0  0  0  0  0  0  0  0  0  0  0  0
    9.6975   48.1772  132.6325 S   0  0  0  0  0  0  0  0  0  0  0  0
   10.0528   49.3475  131.7043 O   0  0  0  0  0  0  0  0  0  0  0  0
    8.5760   48.7816  133.4881 O   0  0  0  0  0  0  0  0  0  0  0  0
   11.0818   47.7804  133.5506 C   0  0  0  0  0  0  0  0  0  0  0  0
   11.5419   48.5467  134.5777 C   0  0  0  0  0  0  0  0  0  0  0  0
   12.6733   48.2047  135.3167 C   0  0  0  0  0  0  0  0  0  0  0  0
   13.3680   47.0509  135.0131 C   0  0  0  0  0  0  0  0  0  0  0  0
   14.4875   46.7097  135.7422 F   0  0  0  0  0  0  0  0  0  0  0  0
   12.9162   46.2741  133.9849 C   0  0  0  0  0  0  0  0  0  0  0  0
   11.7978   46.6367  133.2740 C   0  0  0  0  0  0  0  0  0  0  0  0
  7  8  1  0  0  0
  8  9  1  0  0  0
  9 10  1  0  0  0
 10 11  1  0  0  0
 11 12  1  0  0  0
 12 13  1  0  0  0
 11  1  1  0  0  0
  1  2  2  0  0  0
  2  3  1  0  0  0
  3  4  2  0  0  0
  4 14  1  0  0  0
 14 15  1  0  0  0
 15 16  2  0  0  0
 15 18  1  0  0  0
 18 19  2  0  0  0
 19 20  1  0  0  0
 20 21  2  0  0  0
 21 22  1  0  0  0
 21 24  1  0  0  0
 24 25  3  0  0  0
  4  5  1  0  0  0
  5  6  2  0  0  0
  5 26  1  0  0  0
 26 27  2  0  0  0
 26 28  2  0  0  0
 26 29  1  0  0  0
 29 30  2  0  0  0
 30 31  1  0  0  0
 31 32  2  0  0  0
 32 33  1  0  0  0
 32 34  1  0  0  0
 34 35  2  0  0  0
 13  8  1  0  0  0
  6  1  1  0  0  0
 35 29  1  0  0  0
 22 18  1  0  0  0
 14 17  1  0  0  0
 22 23  1  0  0  0
M  END
> <minimizedAffinity>
15.10975

> <CNNscore>
0.4782979786

> <CNNaffinity>
7.8445601463

> <CNN_VS>
3.7520372868

> <CNNaffinity_variance>
2.4976239204

$$$$
[H]c1nc(C(=O)N([H])c2c([H])c([H])c(N3C([H])([H])C([H])([H])N(C([H])([H])[H])C([H])([H])C3([H])[H])c([H])c2S(=O)(=O)c2c([H])c([H])c(F)c([H])c2[H])n([H])c1C#N


 35 38  0  0  0  0  0  0  0  0999 V2000
    9.4797   45.2021  130.0849 C   0  0  0  0  0  0  0  0  0  0  0  0
    9.1122   45.5211  128.8213 C   0  0  0  0  0  0  0  0  0  0  0  0
    8.7591   46.8096  128.4262 C   0  0  0  0  0  0  0  0  0  0  0  0
    8.7878   47.8050  129.3783 C   0  0  0  0  0  0  0  0  0  0  0  0
    9.1552   47.5418  130.6958 C   0  0  0  0  0  0  0  0  0  0  0  0
    9.4936   46.2303  131.0035 C   0  0  0  0  0  0  0  0  0  0  0  0
   10.5397   40.5503  130.8653 C   0  0  0  0  0  0  0  0  0  0  0  0
   10.7394   41.5466  131.8715 N   0  0  0  0  0  0  0  0  0  0  0  0
    9.5210   42.2511  132.2360 C   0  0  0  0  0  0  0  0  0  0  0  0
    8.9144   42.9412  131.0322 C   0  0  0  0  0  0  0  0  0  0  0  0
    9.8567   43.8777  130.4842 N   0  0  0  0  0  0  0  0  0  0  0  0
   11.2300   43.4382  130.3497 C   0  0  0  0  0  0  0  0  0  0  0  0
   11.6957   42.5159  131.4417 C   0  0  0  0  0  0  0  0  0  0  0  0
    8.5250   49.1191  129.0455 N   0  0  0  0  0  0  0  0  0  0  0  0
    7.2833   49.7556  129.0161 C   0  0  0  0  0  0  0  0  0  0  0  0
    6.2139   49.1942  129.3098 O   0  0  0  0  0  0  0  0  0  0  0  0
    9.3375   49.7447  128.7456 H   0  0  0  0  0  0  0  0  0  0  0  0
    7.1386   51.1747  128.6257 C   0  0  0  0  0  0  0  0  0  0  0  0
    6.6663   52.1730  129.3842 N   0  0  0  0  0  0  0  0  0  0  0  0
    6.6812   53.3192  128.6883 C   0  0  0  0  0  0  0  0  0  0  0  0
    7.1952   52.9797  127.4357 C   0  0  0  0  0  0  0  0  0  0  0  0
    7.4631   51.6709  127.4286 N   0  0  0  0  0  0  0  0  0  0  0  0
    7.8500   51.1393  126.6388 H   0  0  0  0  0  0  0  0  0  0  0  0
    7.3850   53.9192  126.3653 C   0  0  0  0  0  0  0  0  0  0  0  0
    7.5266   54.6582  125.4985 N   0  0  0  0  0  0  0  0  0  0  0  0
    9.1603   48.6642  131.9976 S   0  0  0  0  0  0  0  0  0  0  0  0
   10.2998   49.6666  131.7653 O   0  0  0  0  0  0  0  0  0  0  0  0
    7.9197   49.5534  131.8381 O   0  0  0  0  0  0  0  0  0  0  0  0
    9.3151   48.0310  133.5760 C   0  0  0  0  0  0  0  0  0  0  0  0
    8.4027   48.2517  134.5623 C   0  0  0  0  0  0  0  0  0  0  0  0
    8.5462   47.7243  135.8447 C   0  0  0  0  0  0  0  0  0  0  0  0
    9.6462   46.9469  136.1476 C   0  0  0  0  0  0  0  0  0  0  0  0
    9.7910   46.4238  137.4152 F   0  0  0  0  0  0  0  0  0  0  0  0
   10.5682   46.7187  135.1667 C   0  0  0  0  0  0  0  0  0  0  0  0
   10.4002   47.2518  133.9116 C   0  0  0  0  0  0  0  0  0  0  0  0
  7  8  1  0  0  0
  8  9  1  0  0  0
  9 10  1  0  0  0
 10 11  1  0  0  0
 11 12  1  0  0  0
 12 13  1  0  0  0
 11  1  1  0  0  0
  1  2  2  0  0  0
  2  3  1  0  0  0
  3  4  2  0  0  0
  4 14  1  0  0  0
 14 15  1  0  0  0
 15 16  2  0  0  0
 15 18  1  0  0  0
 18 19  2  0  0  0
 19 20  1  0  0  0
 20 21  2  0  0  0
 21 22  1  0  0  0
 21 24  1  0  0  0
 24 25  3  0  0  0
  4  5  1  0  0  0
  5  6  2  0  0  0
  5 26  1  0  0  0
 26 27  2  0  0  0
 26 28  2  0  0  0
 26 29  1  0  0  0
 29 30  2  0  0  0
 30 31  1  0  0  0
 31 32  2  0  0  0
 32 33  1  0  0  0
 32 34  1  0  0  0
 34 35  2  0  0  0
 13  8  1  0  0  0
  6  1  1  0  0  0
 35 29  1  0  0  0
 22 18  1  0  0  0
 14 17  1  0  0  0
 22 23  1  0  0  0
M  END
> <minimizedAffinity>
8.21138

> <CNNscore>
0.4299896955

> <CNNaffinity>
7.4981560707

> <CNN_VS>
3.2241299152

> <CNNaffinity_variance>
0.9687841535

$$$$
[H]c1nc(C(=O)N([H])c2c([H])c([H])c(N3C([H])([H])C([H])([H])N(C([H])([H])[H])C([H])([H])C3([H])[H])c([H])c2S(=O)(=O)c2c([H])c([H])c(F)c([H])c2[H])n([H])c1C#N


 35 38  0  0  0  0  0  0  0  0999 V2000
    9.4592   44.7373  130.3225 C   0  0  0  0  0  0  0  0  0  0  0  0
    8.9151   45.0788  129.1305 C   0  0  0  0  0  0  0  0  0  0  0  0
    8.5325   46.3782  128.8048 C   0  0  0  0  0  0  0  0  0  0  0  0
    8.7209   47.3608  129.7519 C   0  0  0  0  0  0  0  0  0  0  0  0
    9.2740   47.0745  130.9978 C   0  0  0  0  0  0  0  0  0  0  0  0
    9.6287   45.7534  131.2390 C   0  0  0  0  0  0  0  0  0  0  0  0
   11.0568   40.2031  130.8329 C   0  0  0  0  0  0  0  0  0  0  0  0
   10.3378   40.8693  131.8742 N   0  0  0  0  0  0  0  0  0  0  0  0
    9.0086   41.3007  131.4731 C   0  0  0  0  0  0  0  0  0  0  0  0
    9.0805   42.2505  130.2958 C   0  0  0  0  0  0  0  0  0  0  0  0
    9.8653   43.4015  130.6484 N   0  0  0  0  0  0  0  0  0  0  0  0
   11.1026   43.1692  131.3643 C   0  0  0  0  0  0  0  0  0  0  0  0
   11.0538   42.0177  132.3294 C   0  0  0  0  0  0  0  0  0  0  0  0
    8.4373   48.6835  129.4747 N   0  0  0  0  0  0  0  0  0  0  0  0
    7.1889   49.2456  129.2043 C   0  0  0  0  0  0  0  0  0  0  0  0
    6.1291   48.5961  129.1898 O   0  0  0  0  0  0  0  0  0  0  0  0
    9.2442   49.3822  129.4277 H   0  0  0  0  0  0  0  0  0  0  0  0
    7.0246   50.6852  128.9078 C   0  0  0  0  0  0  0  0  0  0  0  0
    6.3998   51.5959  129.6662 N   0  0  0  0  0  0  0  0  0  0  0  0
    6.4500   52.7959  129.0698 C   0  0  0  0  0  0  0  0  0  0  0  0
    7.1496   52.5842  127.8806 C   0  0  0  0  0  0  0  0  0  0  0  0
    7.4849   51.2930  127.8109 N   0  0  0  0  0  0  0  0  0  0  0  0
    8.0050   50.8459  127.0455 H   0  0  0  0  0  0  0  0  0  0  0  0
    7.4357   53.6171  126.9238 C   0  0  0  0  0  0  0  0  0  0  0  0
    7.6721   54.4291  126.1477 N   0  0  0  0  0  0  0  0  0  0  0  0
    9.4933   48.1800  132.2955 S   0  0  0  0  0  0  0  0  0  0  0  0
   10.7727   48.9863  132.0308 O   0  0  0  0  0  0  0  0  0  0  0  0
    8.4081   49.2574  132.1653 O   0  0  0  0  0  0  0  0  0  0  0  0
    9.5852   47.5285  133.8715 C   0  0  0  0  0  0  0  0  0  0  0  0
   10.4817   46.5694  134.2321 C   0  0  0  0  0  0  0  0  0  0  0  0
   10.5421   46.0512  135.5249 C   0  0  0  0  0  0  0  0  0  0  0  0
    9.6703   46.5132  136.4905 C   0  0  0  0  0  0  0  0  0  0  0  0
    9.7276   46.0027  137.7702 F   0  0  0  0  0  0  0  0  0  0  0  0
    8.7665   47.4751  136.1407 C   0  0  0  0  0  0  0  0  0  0  0  0
    8.7303   47.9671  134.8583 C   0  0  0  0  0  0  0  0  0  0  0  0
  7  8  1  0  0  0
  8  9  1  0  0  0
  9 10  1  0  0  0
 10 11  1  0  0  0
 11 12  1  0  0  0
 12 13  1  0  0  0
 11  1  1  0  0  0
  1  2  2  0  0  0
  2  3  1  0  0  0
  3  4  2  0  0  0
  4 14  1  0  0  0
 14 15  1  0  0  0
 15 16  2  0  0  0
 15 18  1  0  0  0
 18 19  2  0  0  0
 19 20  1  0  0  0
 20 21  2  0  0  0
 21 22  1  0  0  0
 21 24  1  0  0  0
 24 25  3  0  0  0
  4  5  1  0  0  0
  5  6  2  0  0  0
  5 26  1  0  0  0
 26 27  2  0  0  0
 26 28  2  0  0  0
 26 29  1  0  0  0
 29 30  2  0  0  0
 30 31  1  0  0  0
 31 32  2  0  0  0
 32 33  1  0  0  0
 32 34  1  0  0  0
 34 35  2  0  0  0
 13  8  1  0  0  0
  6  1  1  0  0  0
 35 29  1  0  0  0
 22 18  1  0  0  0
 14 17  1  0  0  0
 22 23  1  0  0  0
M  END
> <minimizedAffinity>
12.17314

> <CNNscore>
0.4123473763

> <CNNaffinity>
7.4989080429

> <CNN_VS>
3.0921549797

> <CNNaffinity_variance>
0.7583482265

$$$$
[H]c1nc(C(=O)N([H])c2c([H])c([H])c(N3C([H])([H])C([H])([H])N(C([H])([H])[H])C([H])([H])C3([H])[H])c([H])c2S(=O)(=O)c2c([H])c([H])c(F)c([H])c2[H])n([H])c1C#N


 35 38  0  0  0  0  0  0  0  0999 V2000
   10.3449   47.0111  132.5281 C   0  0  0  0  0  0  0  0  0  0  0  0
   10.7003   48.2879  132.8060 C   0  0  0  0  0  0  0  0  0  0  0  0
   10.3261   49.3773  132.0223 C   0  0  0  0  0  0  0  0  0  0  0  0
    9.5543   49.1330  130.9076 C   0  0  0  0  0  0  0  0  0  0  0  0
    9.1568   47.8425  130.5659 C   0  0  0  0  0  0  0  0  0  0  0  0
    9.5726   46.8149  131.4027 C   0  0  0  0  0  0  0  0  0  0  0  0
   11.5699   43.6433  135.7729 C   0  0  0  0  0  0  0  0  0  0  0  0
   11.5364   43.3610  134.3713 N   0  0  0  0  0  0  0  0  0  0  0  0
   12.4265   44.2051  133.5911 C   0  0  0  0  0  0  0  0  0  0  0  0
   12.0752   45.6679  133.7650 C   0  0  0  0  0  0  0  0  0  0  0  0
   10.7196   45.8943  133.3452 N   0  0  0  0  0  0  0  0  0  0  0  0
    9.7213   44.9373  133.7752 C   0  0  0  0  0  0  0  0  0  0  0  0
   10.2149   43.5196  133.8542 C   0  0  0  0  0  0  0  0  0  0  0  0
    9.0813   50.1683  130.1258 N   0  0  0  0  0  0  0  0  0  0  0  0
    7.7603   50.5999  129.9967 C   0  0  0  0  0  0  0  0  0  0  0  0
    6.8054   50.0881  130.6061 O   0  0  0  0  0  0  0  0  0  0  0  0
    9.7728   50.7079  129.5157 H   0  0  0  0  0  0  0  0  0  0  0  0
    7.3848   51.7208  129.1080 C   0  0  0  0  0  0  0  0  0  0  0  0
    6.6231   52.7768  129.4240 N   0  0  0  0  0  0  0  0  0  0  0  0
    6.4985   53.5824  128.3593 C   0  0  0  0  0  0  0  0  0  0  0  0
    7.2335   52.9652  127.3457 C   0  0  0  0  0  0  0  0  0  0  0  0
    7.7594   51.8371  127.8311 N   0  0  0  0  0  0  0  0  0  0  0  0
    8.3480   51.1742  127.3112 H   0  0  0  0  0  0  0  0  0  0  0  0
    7.3706   53.4959  126.0176 C   0  0  0  0  0  0  0  0  0  0  0  0
    7.4617   53.9253  124.9571 N   0  0  0  0  0  0  0  0  0  0  0  0
    8.2644   47.3855  129.1698 S   0  0  0  0  0  0  0  0  0  0  0  0
    8.4757   48.4569  128.0906 O   0  0  0  0  0  0  0  0  0  0  0  0
    8.9725   46.1716  128.5530 O   0  0  0  0  0  0  0  0  0  0  0  0
    6.5854   47.1387  129.3605 C   0  0  0  0  0  0  0  0  0  0  0  0
    5.6512   47.6885  128.5366 C   0  0  0  0  0  0  0  0  0  0  0  0
    4.2845   47.4736  128.7078 C   0  0  0  0  0  0  0  0  0  0  0  0
    3.8399   46.6774  129.7443 C   0  0  0  0  0  0  0  0  0  0  0  0
    2.4887   46.4628  129.9163 F   0  0  0  0  0  0  0  0  0  0  0  0
    4.7674   46.1205  130.5774 C   0  0  0  0  0  0  0  0  0  0  0  0
    6.1082   46.3502  130.3841 C   0  0  0  0  0  0  0  0  0  0  0  0
  7  8  1  0  0  0
  8  9  1  0  0  0
  9 10  1  0  0  0
 10 11  1  0  0  0
 11 12  1  0  0  0
 12 13  1  0  0  0
 11  1  1  0  0  0
  1  2  2  0  0  0
  2  3  1  0  0  0
  3  4  2  0  0  0
  4 14  1  0  0  0
 14 15  1  0  0  0
 15 16  2  0  0  0
 15 18  1  0  0  0
 18 19  2  0  0  0
 19 20  1  0  0  0
 20 21  2  0  0  0
 21 22  1  0  0  0
 21 24  1  0  0  0
 24 25  3  0  0  0
  4  5  1  0  0  0
  5  6  2  0  0  0
  5 26  1  0  0  0
 26 27  2  0  0  0
 26 28  2  0  0  0
 26 29  1  0  0  0
 29 30  2  0  0  0
 30 31  1  0  0  0
 31 32  2  0  0  0
 32 33  1  0  0  0
 32 34  1  0  0  0
 34 35  2  0  0  0
 13  8  1  0  0  0
  6  1  1  0  0  0
 35 29  1  0  0  0
 22 18  1  0  0  0
 14 17  1  0  0  0
 22 23  1  0  0  0
M  END
> <minimizedAffinity>
10.68732

> <CNNscore>
0.3155490160

> <CNNaffinity>
7.0857949257

> <CNN_VS>
2.2359156609

> <CNNaffinity_variance>
0.6554716825

$$$$
[H]c1nc(C(=O)N([H])c2c([H])c([H])c(N3C([H])([H])C([H])([H])N(C([H])([H])[H])C([H])([H])C3([H])[H])c([H])c2S(=O)(=O)c2c([H])c([H])c(F)c([H])c2[H])n([H])c1C#N


 35 38  0  0  0  0  0  0  0  0999 V2000
   10.3875   41.9669  127.5437 C   0  0  0  0  0  0  0  0  0  0  0  0
    9.9680   43.0137  126.7942 C   0  0  0  0  0  0  0  0  0  0  0  0
    9.4217   44.1756  127.3350 C   0  0  0  0  0  0  0  0  0  0  0  0
    9.3058   44.2545  128.7055 C   0  0  0  0  0  0  0  0  0  0  0  0
    9.7172   43.2117  129.5322 C   0  0  0  0  0  0  0  0  0  0  0  0
   10.2518   42.0906  128.9103 C   0  0  0  0  0  0  0  0  0  0  0  0
   12.5766   37.8618  126.2293 C   0  0  0  0  0  0  0  0  0  0  0  0
   11.8445   38.6574  125.2932 N   0  0  0  0  0  0  0  0  0  0  0  0
   12.3535   40.0132  125.1657 C   0  0  0  0  0  0  0  0  0  0  0  0
   12.3140   40.7332  126.4974 C   0  0  0  0  0  0  0  0  0  0  0  0
   10.9628   40.7788  126.9842 N   0  0  0  0  0  0  0  0  0  0  0  0
   10.1786   39.5652  126.8854 C   0  0  0  0  0  0  0  0  0  0  0  0
   10.4680   38.7377  125.6642 C   0  0  0  0  0  0  0  0  0  0  0  0
    8.8453   45.4032  129.3182 N   0  0  0  0  0  0  0  0  0  0  0  0
    9.4316   46.6696  129.2982 C   0  0  0  0  0  0  0  0  0  0  0  0
   10.4830   46.9328  128.6896 O   0  0  0  0  0  0  0  0  0  0  0  0
    7.9543   45.3497  129.9053 H   0  0  0  0  0  0  0  0  0  0  0  0
    8.8378   47.8200  130.0132 C   0  0  0  0  0  0  0  0  0  0  0  0
    9.3439   48.4510  131.0812 N   0  0  0  0  0  0  0  0  0  0  0  0
    8.5230   49.4434  131.4544 C   0  0  0  0  0  0  0  0  0  0  0  0
    7.4609   49.3991  130.5497 C   0  0  0  0  0  0  0  0  0  0  0  0
    7.6809   48.4029  129.6872 N   0  0  0  0  0  0  0  0  0  0  0  0
    7.0657   48.1321  128.9098 H   0  0  0  0  0  0  0  0  0  0  0  0
    6.3407   50.2982  130.5835 C   0  0  0  0  0  0  0  0  0  0  0  0
    5.4578   51.0310  130.6142 N   0  0  0  0  0  0  0  0  0  0  0  0
    9.5609   43.1426  131.2425 S   0  0  0  0  0  0  0  0  0  0  0  0
    8.1109   42.7665  131.5792 O   0  0  0  0  0  0  0  0  0  0  0  0
   10.3283   41.9026  131.7210 O   0  0  0  0  0  0  0  0  0  0  0  0
    9.9699   44.5475  132.1230 C   0  0  0  0  0  0  0  0  0  0  0  0
   11.1928   45.1422  132.0549 C   0  0  0  0  0  0  0  0  0  0  0  0
   11.5070   46.2902  132.7806 C   0  0  0  0  0  0  0  0  0  0  0  0
   10.5582   46.8619  133.6047 C   0  0  0  0  0  0  0  0  0  0  0  0
   10.8658   47.9975  134.3238 F   0  0  0  0  0  0  0  0  0  0  0  0
    9.3280   46.2744  133.6814 C   0  0  0  0  0  0  0  0  0  0  0  0
    9.0471   45.1429  132.9543 C   0  0  0  0  0  0  0  0  0  0  0  0
  7  8  1  0  0  0
  8  9  1  0  0  0
  9 10  1  0  0  0
 10 11  1  0  0  0
 11 12  1  0  0  0
 12 13  1  0  0  0
 11  1  1  0  0  0
  1  2  2  0  0  0
  2  3  1  0  0  0
  3  4  2  0  0  0
  4 14  1  0  0  0
 14 15  1  0  0  0
 15 16  2  0  0  0
 15 18  1  0  0  0
 18 19  2  0  0  0
 19 20  1  0  0  0
 20 21  2  0  0  0
 21 22  1  0  0  0
 21 24  1  0  0  0
 24 25  3  0  0  0
  4  5  1  0  0  0
  5  6  2  0  0  0
  5 26  1  0  0  0
 26 27  2  0  0  0
 26 28  2  0  0  0
 26 29  1  0  0  0
 29 30  2  0  0  0
 30 31  1  0  0  0
 31 32  2  0  0  0
 32 33  1  0  0  0
 32 34  1  0  0  0
 34 35  2  0  0  0
 13  8  1  0  0  0
  6  1  1  0  0  0
 35 29  1  0  0  0
 22 18  1  0  0  0
 14 17  1  0  0  0
 22 23  1  0  0  0
M  END
> <minimizedAffinity>
17.71262

> <CNNscore>
0.3153773248

> <CNNaffinity>
7.5699501038

> <CNN_VS>
2.3873906136

> <CNNaffinity_variance>
0.5758066773

$$$$
[H]c1nc(C(=O)N([H])c2c([H])c([H])c(N3C([H])([H])C([H])([H])N(C([H])([H])[H])C([H])([H])C3([H])[H])c([H])c2S(=O)(=O)c2c([H])c([H])c(F)c([H])c2[H])n([H])c1C#N


 35 38  0  0  0  0  0  0  0  0999 V2000
    8.1307   48.2429  129.7251 C   0  0  0  0  0  0  0  0  0  0  0  0
    8.4040   47.3067  128.7857 C   0  0  0  0  0  0  0  0  0  0  0  0
    8.8392   46.0184  129.0890 C   0  0  0  0  0  0  0  0  0  0  0  0
    8.9974   45.6889  130.4173 C   0  0  0  0  0  0  0  0  0  0  0  0
    8.7348   46.6069  131.4314 C   0  0  0  0  0  0  0  0  0  0  0  0
    8.3036   47.8681  131.0407 C   0  0  0  0  0  0  0  0  0  0  0  0
    7.0533   52.7190  128.2502 C   0  0  0  0  0  0  0  0  0  0  0  0
    6.3179   52.0727  129.2925 N   0  0  0  0  0  0  0  0  0  0  0  0
    7.1417   51.6877  130.4268 C   0  0  0  0  0  0  0  0  0  0  0  0
    8.2435   50.7411  129.9986 C   0  0  0  0  0  0  0  0  0  0  0  0
    7.6689   49.5630  129.4095 N   0  0  0  0  0  0  0  0  0  0  0  0
    6.5813   49.7507  128.4718 C   0  0  0  0  0  0  0  0  0  0  0  0
    5.6692   50.8991  128.8020 C   0  0  0  0  0  0  0  0  0  0  0  0
    9.3515   44.4098  130.7983 N   0  0  0  0  0  0  0  0  0  0  0  0
   10.6176   43.8255  130.7378 C   0  0  0  0  0  0  0  0  0  0  0  0
   11.6301   44.4162  130.3243 O   0  0  0  0  0  0  0  0  0  0  0  0
    8.5908   43.7537  131.1621 H   0  0  0  0  0  0  0  0  0  0  0  0
   10.8594   42.4315  131.1685 C   0  0  0  0  0  0  0  0  0  0  0  0
   11.4021   42.0304  132.3259 N   0  0  0  0  0  0  0  0  0  0  0  0
   11.4649   40.6913  132.3588 C   0  0  0  0  0  0  0  0  0  0  0  0
   10.9247   40.2700  131.1426 C   0  0  0  0  0  0  0  0  0  0  0  0
   10.5665   41.3495  130.4419 N   0  0  0  0  0  0  0  0  0  0  0  0
   10.1412   41.3469  129.5063 H   0  0  0  0  0  0  0  0  0  0  0  0
   10.7974   38.8921  130.7561 C   0  0  0  0  0  0  0  0  0  0  0  0
   10.7047   37.7952  130.4308 N   0  0  0  0  0  0  0  0  0  0  0  0
    8.9622   46.3586  133.1169 S   0  0  0  0  0  0  0  0  0  0  0  0
    8.8937   47.7224  133.8186 O   0  0  0  0  0  0  0  0  0  0  0  0
    7.7012   45.6651  133.6501 O   0  0  0  0  0  0  0  0  0  0  0  0
   10.3984   45.5745  133.6055 C   0  0  0  0  0  0  0  0  0  0  0  0
   11.6347   45.9381  133.1661 C   0  0  0  0  0  0  0  0  0  0  0  0
   12.7959   45.2863  133.5782 C   0  0  0  0  0  0  0  0  0  0  0  0
   12.7125   44.2307  134.4641 C   0  0  0  0  0  0  0  0  0  0  0  0
   13.8593   43.5839  134.8737 F   0  0  0  0  0  0  0  0  0  0  0  0
   11.4779   43.8566  134.9118 C   0  0  0  0  0  0  0  0  0  0  0  0
   10.3506   44.5179  134.4879 C   0  0  0  0  0  0  0  0  0  0  0  0
  7  8  1  0  0  0
  8  9  1  0  0  0
  9 10  1  0  0  0
 10 11  1  0  0  0
 11 12  1  0  0  0
 12 13  1  0  0  0
 11  1  1  0  0  0
  1  2  2  0  0  0
  2  3  1  0  0  0
  3  4  2  0  0  0
  4 14  1  0  0  0
 14 15  1  0  0  0
 15 16  2  0  0  0
 15 18  1  0  0  0
 18 19  2  0  0  0
 19 20  1  0  0  0
 20 21  2  0  0  0
 21 22  1  0  0  0
 21 24  1  0  0  0
 24 25  3  0  0  0
  4  5  1  0  0  0
  5  6  2  0  0  0
  5 26  1  0  0  0
 26 27  2  0  0  0
 26 28  2  0  0  0
 26 29  1  0  0  0
 29 30  2  0  0  0
 30 31  1  0  0  0
 31 32  2  0  0  0
 32 33  1  0  0  0
 32 34  1  0  0  0
 34 35  2  0  0  0
 13  8  1  0  0  0
  6  1  1  0  0  0
 35 29  1  0  0  0
 22 18  1  0  0  0
 14 17  1  0  0  0
 22 23  1  0  0  0
M  END
> <minimizedAffinity>
15.70976

> <CNNscore>
0.3142303228

> <CNNaffinity>
7.6019334793

> <CNN_VS>
2.3887579441

> <CNNaffinity_variance>
0.8867417574

$$$$
[H]c1nc(C(=O)N([H])c2c([H])c([H])c(N3C([H])([H])C([H])([H])N(C([H])([H])[H])C([H])([H])C3([H])[H])c([H])c2S(=O)(=O)c2c([H])c([H])c(F)c([H])c2[H])n([H])c1C#N


 35 38  0  0  0  0  0  0  0  0999 V2000
    9.0384   44.7959  130.9699 C   0  0  0  0  0  0  0  0  0  0  0  0
    7.9312   44.6460  130.2048 C   0  0  0  0  0  0  0  0  0  0  0  0
    7.0999   45.7031  129.8410 C   0  0  0  0  0  0  0  0  0  0  0  0
    7.4293   46.9638  130.2885 C   0  0  0  0  0  0  0  0  0  0  0  0
    8.5539   47.1847  131.0801 C   0  0  0  0  0  0  0  0  0  0  0  0
    9.3283   46.0753  131.3946 C   0  0  0  0  0  0  0  0  0  0  0  0
   11.5138   40.7510  131.9095 C   0  0  0  0  0  0  0  0  0  0  0  0
   11.9630   42.0307  132.3631 N   0  0  0  0  0  0  0  0  0  0  0  0
   11.0070   42.7053  133.2261 C   0  0  0  0  0  0  0  0  0  0  0  0
    9.6889   42.9174  132.5114 C   0  0  0  0  0  0  0  0  0  0  0  0
    9.8995   43.7077  131.3298 N   0  0  0  0  0  0  0  0  0  0  0  0
   11.0357   43.3703  130.4976 C   0  0  0  0  0  0  0  0  0  0  0  0
   12.2407   42.8910  131.2579 C   0  0  0  0  0  0  0  0  0  0  0  0
    6.6974   48.0708  129.9066 N   0  0  0  0  0  0  0  0  0  0  0  0
    5.5983   48.1069  129.0474 C   0  0  0  0  0  0  0  0  0  0  0  0
    5.1148   47.0989  128.5040 O   0  0  0  0  0  0  0  0  0  0  0  0
    6.9924   49.0312  130.2701 H   0  0  0  0  0  0  0  0  0  0  0  0
    4.9089   49.3707  128.7086 C   0  0  0  0  0  0  0  0  0  0  0  0
    5.2753   50.6080  129.0692 N   0  0  0  0  0  0  0  0  0  0  0  0
    4.4035   51.5013  128.5793 C   0  0  0  0  0  0  0  0  0  0  0  0
    3.4584   50.7461  127.8830 C   0  0  0  0  0  0  0  0  0  0  0  0
    3.7925   49.4563  127.9800 N   0  0  0  0  0  0  0  0  0  0  0  0
    3.2786   48.6679  127.5669 H   0  0  0  0  0  0  0  0  0  0  0  0
    2.3314   51.3102  127.1930 C   0  0  0  0  0  0  0  0  0  0  0  0
    1.4401   51.7581  126.6251 N   0  0  0  0  0  0  0  0  0  0  0  0
    9.0387   48.6828  131.7692 S   0  0  0  0  0  0  0  0  0  0  0  0
    9.6292   49.5576  130.6543 O   0  0  0  0  0  0  0  0  0  0  0  0
    7.7616   49.4526  132.1321 O   0  0  0  0  0  0  0  0  0  0  0  0
   10.1586   48.6256  133.0573 C   0  0  0  0  0  0  0  0  0  0  0  0
   10.5956   47.4634  133.6161 C   0  0  0  0  0  0  0  0  0  0  0  0
   11.5119   47.4376  134.6664 C   0  0  0  0  0  0  0  0  0  0  0  0
   12.0074   48.6221  135.1738 C   0  0  0  0  0  0  0  0  0  0  0  0
   12.9139   48.5998  136.2126 F   0  0  0  0  0  0  0  0  0  0  0  0
   11.5764   49.7941  134.6216 C   0  0  0  0  0  0  0  0  0  0  0  0
   10.6723   49.7886  133.5870 C   0  0  0  0  0  0  0  0  0  0  0  0
  7  8  1  0  0  0
  8  9  1  0  0  0
  9 10  1  0  0  0
 10 11  1  0  0  0
 11 12  1  0  0  0
 12 13  1  0  0  0
 11  1  1  0  0  0
  1  2  2  0  0  0
  2  3  1  0  0  0
  3  4  2  0  0  0
  4 14  1  0  0  0
 14 15  1  0  0  0
 15 16  2  0  0  0
 15 18  1  0  0  0
 18 19  2  0  0  0
 19 20  1  0  0  0
 20 21  2  0  0  0
 21 22  1  0  0  0
 21 24  1  0  0  0
 24 25  3  0  0  0
  4  5  1  0  0  0
  5  6  2  0  0  0
  5 26  1  0  0  0
 26 27  2  0  0  0
 26 28  2  0  0  0
 26 29  1  0  0  0
 29 30  2  0  0  0
 30 31  1  0  0  0
 31 32  2  0  0  0
 32 33  1  0  0  0
 32 34  1  0  0  0
 34 35  2  0  0  0
 13  8  1  0  0  0
  6  1  1  0  0  0
 35 29  1  0  0  0
 22 18  1  0  0  0
 14 17  1  0  0  0
 22 23  1  0  0  0
M  END
> <minimizedAffinity>
21.48451

> <CNNscore>
0.2973827124

> <CNNaffinity>
7.2860884666

> <CNN_VS>
2.1667568684

> <CNNaffinity_variance>
0.7374023199

$$$$
[H]c1nc(C(=O)N([H])c2c([H])c([H])c(N3C([H])([H])C([H])([H])N(C([H])([H])[H])C([H])([H])C3([H])[H])c([H])c2S(=O)(=O)c2c([H])c([H])c(F)c([H])c2[H])n([H])c1C#N


 35 38  0  0  0  0  0  0  0  0999 V2000
   10.5739   42.1205  127.3110 C   0  0  0  0  0  0  0  0  0  0  0  0
    9.3764   42.6386  126.9487 C   0  0  0  0  0  0  0  0  0  0  0  0
    8.8937   43.8585  127.4175 C   0  0  0  0  0  0  0  0  0  0  0  0
    9.6830   44.5677  128.2962 C   0  0  0  0  0  0  0  0  0  0  0  0
   10.9241   44.0890  128.7093 C   0  0  0  0  0  0  0  0  0  0  0  0
   11.3291   42.8652  128.1921 C   0  0  0  0  0  0  0  0  0  0  0  0
   12.5102   37.8293  126.2121 C   0  0  0  0  0  0  0  0  0  0  0  0
   11.8113   38.6108  125.2395 N   0  0  0  0  0  0  0  0  0  0  0  0
   12.3941   39.9259  125.0289 C   0  0  0  0  0  0  0  0  0  0  0  0
   12.4134   40.7216  126.3173 C   0  0  0  0  0  0  0  0  0  0  0  0
   11.0736   40.8718  126.8147 N   0  0  0  0  0  0  0  0  0  0  0  0
   10.2211   39.7012  126.7941 C   0  0  0  0  0  0  0  0  0  0  0  0
   10.4468   38.7904  125.6195 C   0  0  0  0  0  0  0  0  0  0  0  0
    9.3066   45.8185  128.7441 N   0  0  0  0  0  0  0  0  0  0  0  0
    8.4870   46.1194  129.8329 C   0  0  0  0  0  0  0  0  0  0  0  0
    7.9808   45.2586  130.5731 O   0  0  0  0  0  0  0  0  0  0  0  0
    9.6407   46.6785  128.2053 H   0  0  0  0  0  0  0  0  0  0  0  0
    8.1491   47.5119  130.1990 C   0  0  0  0  0  0  0  0  0  0  0  0
    8.2020   48.0571  131.4217 N   0  0  0  0  0  0  0  0  0  0  0  0
    7.8182   49.3406  131.3643 C   0  0  0  0  0  0  0  0  0  0  0  0
    7.5179   49.5728  130.0210 C   0  0  0  0  0  0  0  0  0  0  0  0
    7.7286   48.4436  129.3389 N   0  0  0  0  0  0  0  0  0  0  0  0
    7.5896   48.3148  128.3288 H   0  0  0  0  0  0  0  0  0  0  0  0
    7.0615   50.8348  129.5078 C   0  0  0  0  0  0  0  0  0  0  0  0
    6.6801   51.8348  129.0931 N   0  0  0  0  0  0  0  0  0  0  0  0
   11.9730   44.8265  129.8540 S   0  0  0  0  0  0  0  0  0  0  0  0
   13.4204   44.4889  129.4688 O   0  0  0  0  0  0  0  0  0  0  0  0
   11.9252   46.3405  129.6074 O   0  0  0  0  0  0  0  0  0  0  0  0
   11.7460   44.4220  131.4975 C   0  0  0  0  0  0  0  0  0  0  0  0
   10.9615   43.3889  131.9111 C   0  0  0  0  0  0  0  0  0  0  0  0
   10.7902   43.0734  133.2581 C   0  0  0  0  0  0  0  0  0  0  0  0
   11.4302   43.8228  134.2250 C   0  0  0  0  0  0  0  0  0  0  0  0
   11.2629   43.5132  135.5582 F   0  0  0  0  0  0  0  0  0  0  0  0
   12.2197   44.8616  133.8224 C   0  0  0  0  0  0  0  0  0  0  0  0
   12.3697   45.1491  132.4872 C   0  0  0  0  0  0  0  0  0  0  0  0
  7  8  1  0  0  0
  8  9  1  0  0  0
  9 10  1  0  0  0
 10 11  1  0  0  0
 11 12  1  0  0  0
 12 13  1  0  0  0
 11  1  1  0  0  0
  1  2  2  0  0  0
  2  3  1  0  0  0
  3  4  2  0  0  0
  4 14  1  0  0  0
 14 15  1  0  0  0
 15 16  2  0  0  0
 15 18  1  0  0  0
 18 19  2  0  0  0
 19 20  1  0  0  0
 20 21  2  0  0  0
 21 22  1  0  0  0
 21 24  1  0  0  0
 24 25  3  0  0  0
  4  5  1  0  0  0
  5  6  2  0  0  0
  5 26  1  0  0  0
 26 27  2  0  0  0
 26 28  2  0  0  0
 26 29  1  0  0  0
 29 30  2  0  0  0
 30 31  1  0  0  0
 31 32  2  0  0  0
 32 33  1  0  0  0
 32 34  1  0  0  0
 34 35  2  0  0  0
 13  8  1  0  0  0
  6  1  1  0  0  0
 35 29  1  0  0  0
 22 18  1  0  0  0
 14 17  1  0  0  0
 22 23  1  0  0  0
M  END
> <minimizedAffinity>
18.85344

> <CNNscore>
0.2842784822

> <CNNaffinity>
7.3292059898

> <CNN_VS>
2.0835356712

> <CNNaffinity_variance>
0.3969195783

$$$$
[H]OC(=O)c1c([H])c([H])c(C(=O)N2C([H])([H])c3c([H])c([H])c(N([H])C(=O)c4c([H])c([H])c([H])c(Cl)c4[H])c([H])c3C2([H])[H])c([H])c1[H]


 32 35  0  0  0  0  0  0  0  0999 V2000
    9.8674   46.2008  131.4655 C   0  0  0  0  0  0  0  0  0  0  0  0
   11.1686   46.3735  131.2260 O   0  0  0  0  0  0  0  0  0  0  0  0
    9.0685   47.2696  130.9854 N   0  0  0  0  0  0  0  0  0  0  0  0
    7.6550   47.4061  131.0349 C   0  0  0  0  0  0  0  0  0  0  0  0
    7.3424   48.5547  130.1431 C   0  0  0  0  0  0  0  0  0  0  0  0
    6.1472   49.0603  129.6855 C   0  0  0  0  0  0  0  0  0  0  0  0
    6.0748   50.1684  128.8251 C   0  0  0  0  0  0  0  0  0  0  0  0
    7.2213   50.7884  128.4096 C   0  0  0  0  0  0  0  0  0  0  0  0
    8.4306   50.2651  128.8826 C   0  0  0  0  0  0  0  0  0  0  0  0
    8.4901   49.1637  129.7374 C   0  0  0  0  0  0  0  0  0  0  0  0
    9.6475   48.4661  130.3480 C   0  0  0  0  0  0  0  0  0  0  0  0
    8.9884   42.6152  133.5134 C   0  0  0  0  0  0  0  0  0  0  0  0
    7.9967   43.2185  132.7912 C   0  0  0  0  0  0  0  0  0  0  0  0
    8.2805   44.4232  132.1134 C   0  0  0  0  0  0  0  0  0  0  0  0
    9.4879   45.0173  132.1385 C   0  0  0  0  0  0  0  0  0  0  0  0
   10.4740   44.3603  132.8940 C   0  0  0  0  0  0  0  0  0  0  0  0
   10.2364   43.1865  133.5680 C   0  0  0  0  0  0  0  0  0  0  0  0
    9.7437   40.6394  134.7527 O   0  0  0  0  0  0  0  0  0  0  0  0
    8.7071   41.3630  134.2224 C   0  0  0  0  0  0  0  0  0  0  0  0
    7.5250   40.9617  134.3398 O   0  0  0  0  0  0  0  0  0  0  0  0
   10.5301   41.1047  135.1876 H   0  0  0  0  0  0  0  0  0  0  0  0
    7.2534   51.9000  127.5225 N   0  0  0  0  0  0  0  0  0  0  0  0
    7.0942   53.2490  127.8119 C   0  0  0  0  0  0  0  0  0  0  0  0
    6.8855   53.6364  128.9947 O   0  0  0  0  0  0  0  0  0  0  0  0
    7.4327   51.6667  126.4872 H   0  0  0  0  0  0  0  0  0  0  0  0
    7.1678   54.2446  126.7404 C   0  0  0  0  0  0  0  0  0  0  0  0
    8.3114   54.7921  126.2422 C   0  0  0  0  0  0  0  0  0  0  0  0
    8.3001   55.7467  125.2182 C   0  0  0  0  0  0  0  0  0  0  0  0
    7.1049   56.1606  124.6818 C   0  0  0  0  0  0  0  0  0  0  0  0
    5.9506   55.6182  125.1733 C   0  0  0  0  0  0  0  0  0  0  0  0
    4.4358   56.1583  124.4766 Cl  0  0  0  0  0  0  0  0  0  0  0  0
    5.9702   54.6803  126.1803 C   0  0  0  0  0  0  0  0  0  0  0  0
 18 19  1  0  0  0
 19 20  2  0  0  0
 19 12  1  0  0  0
 12 13  2  0  0  0
 13 14  1  0  0  0
 14 15  2  0  0  0
 15 16  1  0  0  0
 16 17  2  0  0  0
 15  1  1  0  0  0
  1  2  2  0  0  0
  1  3  1  0  0  0
  3  4  1  0  0  0
  4  5  1  0  0  0
  5  6  2  0  0  0
  6  7  1  0  0  0
  7  8  2  0  0  0
  8 22  1  0  0  0
 22 23  1  0  0  0
 23 24  2  0  0  0
 23 26  1  0  0  0
 26 27  2  0  0  0
 27 28  1  0  0  0
 28 29  2  0  0  0
 29 30  1  0  0  0
 30 31  1  0  0  0
 30 32  2  0  0  0
  8  9  1  0  0  0
  9 10  2  0  0  0
 10 11  1  0  0  0
 17 12  1  0  0  0
 11  3  1  0  0  0
 10  5  1  0  0  0
 32 26  1  0  0  0
 18 21  1  0  0  0
 22 25  1  0  0  0
M  END
> <minimizedAffinity>
5.89425

> <CNNscore>
0.5395593643

> <CNNaffinity>
6.5402107239

> <CNN_VS>
3.5288319588

> <CNNaffinity_variance>
0.7351915836

$$$$
[H]OC(=O)c1c([H])c([H])c(C(=O)N2C([H])([H])c3c([H])c([H])c(N([H])C(=O)c4c([H])c([H])c([H])c(Cl)c4[H])c([H])c3C2([H])[H])c([H])c1[H]


 32 35  0  0  0  0  0  0  0  0999 V2000
    9.5616   50.6005  132.7778 C   0  0  0  0  0  0  0  0  0  0  0  0
    8.8065   50.9554  131.7366 O   0  0  0  0  0  0  0  0  0  0  0  0
    9.6623   49.1949  132.9365 N   0  0  0  0  0  0  0  0  0  0  0  0
   10.4025   48.4671  133.9068 C   0  0  0  0  0  0  0  0  0  0  0  0
   10.3844   47.0569  133.4343 C   0  0  0  0  0  0  0  0  0  0  0  0
   11.0458   45.9341  133.8766 C   0  0  0  0  0  0  0  0  0  0  0  0
   10.8908   44.6769  133.2694 C   0  0  0  0  0  0  0  0  0  0  0  0
   10.0568   44.5342  132.1943 C   0  0  0  0  0  0  0  0  0  0  0  0
    9.3894   45.6835  131.7544 C   0  0  0  0  0  0  0  0  0  0  0  0
    9.5510   46.9273  132.3660 C   0  0  0  0  0  0  0  0  0  0  0  0
    8.9447   48.2468  132.0651 C   0  0  0  0  0  0  0  0  0  0  0  0
   11.4865   53.5673  135.0837 C   0  0  0  0  0  0  0  0  0  0  0  0
   10.1322   53.6441  134.9137 C   0  0  0  0  0  0  0  0  0  0  0  0
    9.4839   52.6622  134.1348 C   0  0  0  0  0  0  0  0  0  0  0  0
   10.1328   51.6419  133.5439 C   0  0  0  0  0  0  0  0  0  0  0  0
   11.5229   51.6056  133.7470 C   0  0  0  0  0  0  0  0  0  0  0  0
   12.1902   52.5432  134.4980 C   0  0  0  0  0  0  0  0  0  0  0  0
   11.9077   54.6690  137.2328 O   0  0  0  0  0  0  0  0  0  0  0  0
   12.1727   54.5810  135.8906 C   0  0  0  0  0  0  0  0  0  0  0  0
   12.9950   55.3591  135.3517 O   0  0  0  0  0  0  0  0  0  0  0  0
   11.7653   53.8349  137.7877 H   0  0  0  0  0  0  0  0  0  0  0  0
    9.8514   43.3109  131.4979 N   0  0  0  0  0  0  0  0  0  0  0  0
    9.8186   43.0845  130.1280 C   0  0  0  0  0  0  0  0  0  0  0  0
    9.9802   44.0333  129.3117 O   0  0  0  0  0  0  0  0  0  0  0  0
    9.7094   42.4402  132.1145 H   0  0  0  0  0  0  0  0  0  0  0  0
    9.5952   41.7326  129.6112 C   0  0  0  0  0  0  0  0  0  0  0  0
    8.8674   40.7581  130.2247 C   0  0  0  0  0  0  0  0  0  0  0  0
    8.7045   39.4834  129.6690 C   0  0  0  0  0  0  0  0  0  0  0  0
    9.2902   39.1827  128.4632 C   0  0  0  0  0  0  0  0  0  0  0  0
   10.0227   40.1525  127.8378 C   0  0  0  0  0  0  0  0  0  0  0  0
   10.7622   39.7505  126.3005 Cl  0  0  0  0  0  0  0  0  0  0  0  0
   10.1783   41.4031  128.3908 C   0  0  0  0  0  0  0  0  0  0  0  0
 18 19  1  0  0  0
 19 20  2  0  0  0
 19 12  1  0  0  0
 12 13  2  0  0  0
 13 14  1  0  0  0
 14 15  2  0  0  0
 15 16  1  0  0  0
 16 17  2  0  0  0
 15  1  1  0  0  0
  1  2  2  0  0  0
  1  3  1  0  0  0
  3  4  1  0  0  0
  4  5  1  0  0  0
  5  6  2  0  0  0
  6  7  1  0  0  0
  7  8  2  0  0  0
  8 22  1  0  0  0
 22 23  1  0  0  0
 23 24  2  0  0  0
 23 26  1  0  0  0
 26 27  2  0  0  0
 27 28  1  0  0  0
 28 29  2  0  0  0
 29 30  1  0  0  0
 30 31  1  0  0  0
 30 32  2  0  0  0
  8  9  1  0  0  0
  9 10  2  0  0  0
 10 11  1  0  0  0
 17 12  1  0  0  0
 11  3  1  0  0  0
 10  5  1  0  0  0
 32 26  1  0  0  0
 18 21  1  0  0  0
 22 25  1  0  0  0
M  END
> <minimizedAffinity>
44.21675

> <CNNscore>
0.4839988947

> <CNNaffinity>
6.4126944542

> <CNN_VS>
3.1037371159

> <CNNaffinity_variance>
1.6885509491

$$$$
[H]OC(=O)c1c([H])c([H])c(C(=O)N2C([H])([H])c3c([H])c([H])c(N([H])C(=O)c4c([H])c([H])c([H])c(Cl)c4[H])c([H])c3C2([H])[H])c([H])c1[H]


 32 35  0  0  0  0  0  0  0  0999 V2000
    6.7401   51.2684  128.4520 C   0  0  0  0  0  0  0  0  0  0  0  0
    5.4767   50.8400  128.4273 O   0  0  0  0  0  0  0  0  0  0  0  0
    7.5810   50.4685  129.2669 N   0  0  0  0  0  0  0  0  0  0  0  0
    8.9761   50.6068  129.4987 C   0  0  0  0  0  0  0  0  0  0  0  0
    9.3845   49.3506  130.1825 C   0  0  0  0  0  0  0  0  0  0  0  0
   10.6217   48.8528  130.5215 C   0  0  0  0  0  0  0  0  0  0  0  0
   10.7883   47.6164  131.1672 C   0  0  0  0  0  0  0  0  0  0  0  0
    9.6955   46.8563  131.4827 C   0  0  0  0  0  0  0  0  0  0  0  0
    8.4425   47.3739  131.1333 C   0  0  0  0  0  0  0  0  0  0  0  0
    8.2894   48.6040  130.4922 C   0  0  0  0  0  0  0  0  0  0  0  0
    7.0728   49.3249  130.0461 C   0  0  0  0  0  0  0  0  0  0  0  0
    7.7693   54.5418  125.9926 C   0  0  0  0  0  0  0  0  0  0  0  0
    7.3605   54.7867  127.2740 C   0  0  0  0  0  0  0  0  0  0  0  0
    7.0041   53.6980  128.0979 C   0  0  0  0  0  0  0  0  0  0  0  0
    7.0459   52.4170  127.6873 C   0  0  0  0  0  0  0  0  0  0  0  0
    7.4717   52.2159  126.3632 C   0  0  0  0  0  0  0  0  0  0  0  0
    7.8264   53.2496  125.5302 C   0  0  0  0  0  0  0  0  0  0  0  0
    9.4191   56.1611  125.1764 O   0  0  0  0  0  0  0  0  0  0  0  0
    8.1425   55.6639  125.1257 C   0  0  0  0  0  0  0  0  0  0  0  0
    7.2961   56.1612  124.3458 O   0  0  0  0  0  0  0  0  0  0  0  0
   10.2114   55.5416  125.2872 H   0  0  0  0  0  0  0  0  0  0  0  0
    9.7616   45.5831  132.1138 N   0  0  0  0  0  0  0  0  0  0  0  0
    9.8884   44.3287  131.5312 C   0  0  0  0  0  0  0  0  0  0  0  0
    9.9589   44.2021  130.2776 O   0  0  0  0  0  0  0  0  0  0  0  0
    9.7147   45.5915  133.1891 H   0  0  0  0  0  0  0  0  0  0  0  0
    9.9427   43.1301  132.3708 C   0  0  0  0  0  0  0  0  0  0  0  0
    9.3949   43.0042  133.6117 C   0  0  0  0  0  0  0  0  0  0  0  0
    9.4951   41.8239  134.3580 C   0  0  0  0  0  0  0  0  0  0  0  0
   10.1647   40.7417  133.8403 C   0  0  0  0  0  0  0  0  0  0  0  0
   10.7184   40.8559  132.5959 C   0  0  0  0  0  0  0  0  0  0  0  0
   11.5685   39.4651  131.9520 Cl  0  0  0  0  0  0  0  0  0  0  0  0
   10.6157   42.0197  131.8687 C   0  0  0  0  0  0  0  0  0  0  0  0
 18 19  1  0  0  0
 19 20  2  0  0  0
 19 12  1  0  0  0
 12 13  2  0  0  0
 13 14  1  0  0  0
 14 15  2  0  0  0
 15 16  1  0  0  0
 16 17  2  0  0  0
 15  1  1  0  0  0
  1  2  2  0  0  0
  1  3  1  0  0  0
  3  4  1  0  0  0
  4  5  1  0  0  0
  5  6  2  0  0  0
  6  7  1  0  0  0
  7  8  2  0  0  0
  8 22  1  0  0  0
 22 23  1  0  0  0
 23 24  2  0  0  0
 23 26  1  0  0  0
 26 27  2  0  0  0
 27 28  1  0  0  0
 28 29  2  0  0  0
 29 30  1  0  0  0
 30 31  1  0  0  0
 30 32  2  0  0  0
  8  9  1  0  0  0
  9 10  2  0  0  0
 10 11  1  0  0  0
 17 12  1  0  0  0
 11  3  1  0  0  0
 10  5  1  0  0  0
 32 26  1  0  0  0
 18 21  1  0  0  0
 22 25  1  0  0  0
M  END
> <minimizedAffinity>
18.59408

> <CNNscore>
0.4708906710

> <CNNaffinity>
6.5272879601

> <CNN_VS>
3.0736389160

> <CNNaffinity_variance>
1.5830690861

$$$$
[H]OC(=O)c1c([H])c([H])c(C(=O)N2C([H])([H])c3c([H])c([H])c(N([H])C(=O)c4c([H])c([H])c([H])c(Cl)c4[H])c([H])c3C2([H])[H])c([H])c1[H]


 32 35  0  0  0  0  0  0  0  0999 V2000
    6.7310   51.3356  128.3295 C   0  0  0  0  0  0  0  0  0  0  0  0
    5.5183   50.7933  128.2045 O   0  0  0  0  0  0  0  0  0  0  0  0
    7.5491   50.6547  129.2666 N   0  0  0  0  0  0  0  0  0  0  0  0
    8.8959   50.9302  129.6264 C   0  0  0  0  0  0  0  0  0  0  0  0
    9.3380   49.7499  130.4161 C   0  0  0  0  0  0  0  0  0  0  0  0
   10.5720   49.3833  130.9025 C   0  0  0  0  0  0  0  0  0  0  0  0
   10.7768   48.1988  131.6293 C   0  0  0  0  0  0  0  0  0  0  0  0
    9.7267   47.3579  131.8777 C   0  0  0  0  0  0  0  0  0  0  0  0
    8.4765   47.7423  131.3783 C   0  0  0  0  0  0  0  0  0  0  0  0
    8.2852   48.9219  130.6577 C   0  0  0  0  0  0  0  0  0  0  0  0
    7.0635   49.5073  130.0544 C   0  0  0  0  0  0  0  0  0  0  0  0
    7.6656   54.5624  125.7726 C   0  0  0  0  0  0  0  0  0  0  0  0
    7.4038   54.8226  127.0890 C   0  0  0  0  0  0  0  0  0  0  0  0
    7.0796   53.7501  127.9467 C   0  0  0  0  0  0  0  0  0  0  0  0
    7.0141   52.4703  127.5358 C   0  0  0  0  0  0  0  0  0  0  0  0
    7.2905   52.2530  126.1751 C   0  0  0  0  0  0  0  0  0  0  0  0
    7.6094   53.2708  125.3085 C   0  0  0  0  0  0  0  0  0  0  0  0
    7.0525   56.1531  124.0108 O   0  0  0  0  0  0  0  0  0  0  0  0
    8.0038   55.6676  124.8704 C   0  0  0  0  0  0  0  0  0  0  0  0
    9.1562   56.1611  124.8891 O   0  0  0  0  0  0  0  0  0  0  0  0
    6.0872   56.2379  124.3021 H   0  0  0  0  0  0  0  0  0  0  0  0
    9.8367   46.1269  132.5822 N   0  0  0  0  0  0  0  0  0  0  0  0
    9.0362   44.9959  132.4879 C   0  0  0  0  0  0  0  0  0  0  0  0
    8.0519   44.9643  131.6986 O   0  0  0  0  0  0  0  0  0  0  0  0
   10.6551   46.0581  133.2779 H   0  0  0  0  0  0  0  0  0  0  0  0
    9.3273   43.8184  133.3085 C   0  0  0  0  0  0  0  0  0  0  0  0
    8.7972   42.5761  133.1312 C   0  0  0  0  0  0  0  0  0  0  0  0
    9.1206   41.4984  133.9643 C   0  0  0  0  0  0  0  0  0  0  0  0
   10.0014   41.6769  135.0034 C   0  0  0  0  0  0  0  0  0  0  0  0
   10.5401   42.9190  135.1912 C   0  0  0  0  0  0  0  0  0  0  0  0
   11.6618   43.1276  136.5215 Cl  0  0  0  0  0  0  0  0  0  0  0  0
   10.2171   43.9734  134.3678 C   0  0  0  0  0  0  0  0  0  0  0  0
 18 19  1  0  0  0
 19 20  2  0  0  0
 19 12  1  0  0  0
 12 13  2  0  0  0
 13 14  1  0  0  0
 14 15  2  0  0  0
 15 16  1  0  0  0
 16 17  2  0  0  0
 15  1  1  0  0  0
  1  2  2  0  0  0
  1  3  1  0  0  0
  3  4  1  0  0  0
  4  5  1  0  0  0
  5  6  2  0  0  0
  6  7  1  0  0  0
  7  8  2  0  0  0
  8 22  1  0  0  0
 22 23  1  0  0  0
 23 24  2  0  0  0
 23 26  1  0  0  0
 26 27  2  0  0  0
 27 28  1  0  0  0
 28 29  2  0  0  0
 29 30  1  0  0  0
 30 31  1  0  0  0
 30 32  2  0  0  0
  8  9  1  0  0  0
  9 10  2  0  0  0
 10 11  1  0  0  0
 17 12  1  0  0  0
 11  3  1  0  0  0
 10  5  1  0  0  0
 32 26  1  0  0  0
 18 21  1  0  0  0
 22 25  1  0  0  0
M  END
> <minimizedAffinity>
17.87629

> <CNNscore>
0.4704144299

> <CNNaffinity>
6.4095091820

> <CNN_VS>
3.0151255131

> <CNNaffinity_variance>
1.4174582958

$$$$
[H]OC(=O)c1c([H])c([H])c(C(=O)N2C([H])([H])c3c([H])c([H])c(N([H])C(=O)c4c([H])c([H])c([H])c(Cl)c4[H])c([H])c3C2([H])[H])c([H])c1[H]


 32 35  0  0  0  0  0  0  0  0999 V2000
    5.6162   47.3006  130.0186 C   0  0  0  0  0  0  0  0  0  0  0  0
    5.8965   48.5132  129.5378 O   0  0  0  0  0  0  0  0  0  0  0  0
    6.6354   46.7889  130.8614 N   0  0  0  0  0  0  0  0  0  0  0  0
    6.6608   45.5556  131.5667 C   0  0  0  0  0  0  0  0  0  0  0  0
    7.8106   45.6657  132.5039 C   0  0  0  0  0  0  0  0  0  0  0  0
    8.2373   44.8535  133.5296 C   0  0  0  0  0  0  0  0  0  0  0  0
    9.3642   45.1535  134.3127 C   0  0  0  0  0  0  0  0  0  0  0  0
   10.0841   46.2910  134.0689 C   0  0  0  0  0  0  0  0  0  0  0  0
    9.6403   47.1084  133.0225 C   0  0  0  0  0  0  0  0  0  0  0  0
    8.5192   46.7998  132.2509 C   0  0  0  0  0  0  0  0  0  0  0  0
    7.8933   47.5153  131.1128 C   0  0  0  0  0  0  0  0  0  0  0  0
    1.8630   45.5920  129.1142 C   0  0  0  0  0  0  0  0  0  0  0  0
    2.8652   45.5021  128.1886 C   0  0  0  0  0  0  0  0  0  0  0  0
    4.1188   46.0808  128.4797 C   0  0  0  0  0  0  0  0  0  0  0  0
    4.3854   46.7231  129.6320 C   0  0  0  0  0  0  0  0  0  0  0  0
    3.3245   46.7900  130.5511 C   0  0  0  0  0  0  0  0  0  0  0  0
    2.0898   46.2395  130.3042 C   0  0  0  0  0  0  0  0  0  0  0  0
   -0.2812   44.6664  129.8595 O   0  0  0  0  0  0  0  0  0  0  0  0
    0.5555   44.9950  128.8245 C   0  0  0  0  0  0  0  0  0  0  0  0
    0.2105   44.7887  127.6369 O   0  0  0  0  0  0  0  0  0  0  0  0
   -0.3547   45.2619  130.6743 H   0  0  0  0  0  0  0  0  0  0  0  0
   11.2234   46.6932  134.8197 N   0  0  0  0  0  0  0  0  0  0  0  0
   12.5527   46.7491  134.4212 C   0  0  0  0  0  0  0  0  0  0  0  0
   12.8921   46.4139  133.2528 O   0  0  0  0  0  0  0  0  0  0  0  0
   11.0302   47.0038  135.8320 H   0  0  0  0  0  0  0  0  0  0  0  0
   13.5830   47.2015  135.3584 C   0  0  0  0  0  0  0  0  0  0  0  0
   14.8108   46.6348  135.5231 C   0  0  0  0  0  0  0  0  0  0  0  0
   15.7423   47.1221  136.4477 C   0  0  0  0  0  0  0  0  0  0  0  0
   15.4286   48.2093  137.2269 C   0  0  0  0  0  0  0  0  0  0  0  0
   14.1996   48.7867  137.0705 C   0  0  0  0  0  0  0  0  0  0  0  0
   13.8174   50.1726  138.0729 Cl  0  0  0  0  0  0  0  0  0  0  0  0
   13.2894   48.3016  136.1594 C   0  0  0  0  0  0  0  0  0  0  0  0
 18 19  1  0  0  0
 19 20  2  0  0  0
 19 12  1  0  0  0
 12 13  2  0  0  0
 13 14  1  0  0  0
 14 15  2  0  0  0
 15 16  1  0  0  0
 16 17  2  0  0  0
 15  1  1  0  0  0
  1  2  2  0  0  0
  1  3  1  0  0  0
  3  4  1  0  0  0
  4  5  1  0  0  0
  5  6  2  0  0  0
  6  7  1  0  0  0
  7  8  2  0  0  0
  8 22  1  0  0  0
 22 23  1  0  0  0
 23 24  2  0  0  0
 23 26  1  0  0  0
 26 27  2  0  0  0
 27 28  1  0  0  0
 28 29  2  0  0  0
 29 30  1  0  0  0
 30 31  1  0  0  0
 30 32  2  0  0  0
  8  9  1  0  0  0
  9 10  2  0  0  0
 10 11  1  0  0  0
 17 12  1  0  0  0
 11  3  1  0  0  0
 10  5  1  0  0  0
 32 26  1  0  0  0
 18 21  1  0  0  0
 22 25  1  0  0  0
M  END
> <minimizedAffinity>
39.19103

> <CNNscore>
0.4478800893

> <CNNaffinity>
6.2265992165

> <CNN_VS>
2.7887697220

> <CNNaffinity_variance>
1.1895470619

$$$$
[H]OC(=O)c1c([H])c([H])c(C(=O)N2C([H])([H])c3c([H])c([H])c(N([H])C(=O)c4c([H])c([H])c([H])c(Cl)c4[H])c([H])c3C2([H])[H])c([H])c1[H]


 32 35  0  0  0  0  0  0  0  0999 V2000
    7.9167   50.0697  125.0428 C   0  0  0  0  0  0  0  0  0  0  0  0
    8.1344   49.0497  124.2105 O   0  0  0  0  0  0  0  0  0  0  0  0
    7.7914   49.6642  126.3959 N   0  0  0  0  0  0  0  0  0  0  0  0
    7.5905   50.4754  127.5452 C   0  0  0  0  0  0  0  0  0  0  0  0
    7.8241   49.5738  128.7049 C   0  0  0  0  0  0  0  0  0  0  0  0
    7.9142   49.8229  130.0552 C   0  0  0  0  0  0  0  0  0  0  0  0
    8.1548   48.8087  130.9968 C   0  0  0  0  0  0  0  0  0  0  0  0
    8.3101   47.5138  130.5835 C   0  0  0  0  0  0  0  0  0  0  0  0
    8.2156   47.2732  129.2075 C   0  0  0  0  0  0  0  0  0  0  0  0
    7.9759   48.2892  128.2814 C   0  0  0  0  0  0  0  0  0  0  0  0
    7.8374   48.2489  126.8055 C   0  0  0  0  0  0  0  0  0  0  0  0
    7.8792   53.8491  123.1619 C   0  0  0  0  0  0  0  0  0  0  0  0
    7.3448   53.7343  124.4150 C   0  0  0  0  0  0  0  0  0  0  0  0
    7.3438   52.4717  125.0450 C   0  0  0  0  0  0  0  0  0  0  0  0
    7.8466   51.3616  124.4739 C   0  0  0  0  0  0  0  0  0  0  0  0
    8.3840   51.5295  123.1863 C   0  0  0  0  0  0  0  0  0  0  0  0
    8.4029   52.7421  122.5399 C   0  0  0  0  0  0  0  0  0  0  0  0
    7.3970   55.2658  121.2201 O   0  0  0  0  0  0  0  0  0  0  0  0
    7.8866   55.1553  122.4958 C   0  0  0  0  0  0  0  0  0  0  0  0
    8.3388   56.1605  123.0935 O   0  0  0  0  0  0  0  0  0  0  0  0
    6.5782   54.7449  120.9334 H   0  0  0  0  0  0  0  0  0  0  0  0
    8.5796   46.4224  131.4552 N   0  0  0  0  0  0  0  0  0  0  0  0
    8.2284   45.0865  131.3111 C   0  0  0  0  0  0  0  0  0  0  0  0
    7.5783   44.6938  130.3032 O   0  0  0  0  0  0  0  0  0  0  0  0
    9.1377   46.6611  132.3441 H   0  0  0  0  0  0  0  0  0  0  0  0
    8.6117   44.1110  132.3339 C   0  0  0  0  0  0  0  0  0  0  0  0
    8.0001   42.9147  132.5592 C   0  0  0  0  0  0  0  0  0  0  0  0
    8.4219   42.0358  133.5640 C   0  0  0  0  0  0  0  0  0  0  0  0
    9.4882   42.3709  134.3629 C   0  0  0  0  0  0  0  0  0  0  0  0
   10.1102   43.5686  134.1463 C   0  0  0  0  0  0  0  0  0  0  0  0
   11.4685   43.9788  135.1751 Cl  0  0  0  0  0  0  0  0  0  0  0  0
    9.6893   44.4271  133.1565 C   0  0  0  0  0  0  0  0  0  0  0  0
 18 19  1  0  0  0
 19 20  2  0  0  0
 19 12  1  0  0  0
 12 13  2  0  0  0
 13 14  1  0  0  0
 14 15  2  0  0  0
 15 16  1  0  0  0
 16 17  2  0  0  0
 15  1  1  0  0  0
  1  2  2  0  0  0
  1  3  1  0  0  0
  3  4  1  0  0  0
  4  5  1  0  0  0
  5  6  2  0  0  0
  6  7  1  0  0  0
  7  8  2  0  0  0
  8 22  1  0  0  0
 22 23  1  0  0  0
 23 24  2  0  0  0
 23 26  1  0  0  0
 26 27  2  0  0  0
 27 28  1  0  0  0
 28 29  2  0  0  0
 29 30  1  0  0  0
 30 31  1  0  0  0
 30 32  2  0  0  0
  8  9  1  0  0  0
  9 10  2  0  0  0
 10 11  1  0  0  0
 17 12  1  0  0  0
 11  3  1  0  0  0
 10  5  1  0  0  0
 32 26  1  0  0  0
 18 21  1  0  0  0
 22 25  1  0  0  0
M  END
> <minimizedAffinity>
31.38279

> <CNNscore>
0.4224662185

> <CNNaffinity>
6.2024931908

> <CNN_VS>
2.6203439236

> <CNNaffinity_variance>
1.5265058279

$$$$
[H]OC(=O)c1c([H])c([H])c(C(=O)N2C([H])([H])c3c([H])c([H])c(N([H])C(=O)c4c([H])c([H])c([H])c(Cl)c4[H])c([H])c3C2([H])[H])c([H])c1[H]


 32 35  0  0  0  0  0  0  0  0999 V2000
   11.0179   45.5141  131.3950 C   0  0  0  0  0  0  0  0  0  0  0  0
   12.1155   45.4219  130.6420 O   0  0  0  0  0  0  0  0  0  0  0  0
   11.1325   44.8251  132.6291 N   0  0  0  0  0  0  0  0  0  0  0  0
   10.1826   44.7370  133.6822 C   0  0  0  0  0  0  0  0  0  0  0  0
   10.9253   44.1504  134.8296 C   0  0  0  0  0  0  0  0  0  0  0  0
   10.5763   43.9642  136.1477 C   0  0  0  0  0  0  0  0  0  0  0  0
   11.4485   43.3892  137.0868 C   0  0  0  0  0  0  0  0  0  0  0  0
   12.6998   42.9901  136.7041 C   0  0  0  0  0  0  0  0  0  0  0  0
   13.0426   43.1842  135.3606 C   0  0  0  0  0  0  0  0  0  0  0  0
   12.1673   43.7563  134.4365 C   0  0  0  0  0  0  0  0  0  0  0  0
   12.3283   44.0424  132.9904 C   0  0  0  0  0  0  0  0  0  0  0  0
    7.7039   47.5236  129.7208 C   0  0  0  0  0  0  0  0  0  0  0  0
    8.7425   48.2656  130.2104 C   0  0  0  0  0  0  0  0  0  0  0  0
    9.8483   47.6007  130.7816 C   0  0  0  0  0  0  0  0  0  0  0  0
    9.9383   46.2609  130.8712 C   0  0  0  0  0  0  0  0  0  0  0  0
    8.8467   45.5418  130.3551 C   0  0  0  0  0  0  0  0  0  0  0  0
    7.7521   46.1527  129.7919 C   0  0  0  0  0  0  0  0  0  0  0  0
    5.7424   47.5200  128.2502 O   0  0  0  0  0  0  0  0  0  0  0  0
    6.5487   48.2017  129.1246 C   0  0  0  0  0  0  0  0  0  0  0  0
    6.3048   49.3965  129.4160 O   0  0  0  0  0  0  0  0  0  0  0  0
    5.5193   46.5452  128.4050 H   0  0  0  0  0  0  0  0  0  0  0  0
   13.6619   42.4204  137.5836 N   0  0  0  0  0  0  0  0  0  0  0  0
   15.0469   42.5123  137.5355 C   0  0  0  0  0  0  0  0  0  0  0  0
   15.6202   43.1668  136.6214 O   0  0  0  0  0  0  0  0  0  0  0  0
   13.2642   41.8459  138.4023 H   0  0  0  0  0  0  0  0  0  0  0  0
   15.8638   41.8466  138.5525 C   0  0  0  0  0  0  0  0  0  0  0  0
   16.6825   42.4691  139.4458 C   0  0  0  0  0  0  0  0  0  0  0  0
   17.4397   41.7610  140.3868 C   0  0  0  0  0  0  0  0  0  0  0  0
   17.3700   40.3896  140.4290 C   0  0  0  0  0  0  0  0  0  0  0  0
   16.5517   39.7537  139.5378 C   0  0  0  0  0  0  0  0  0  0  0  0
   16.4757   38.0041  139.6068 Cl  0  0  0  0  0  0  0  0  0  0  0  0
   15.8106   40.4570  138.6157 C   0  0  0  0  0  0  0  0  0  0  0  0
 18 19  1  0  0  0
 19 20  2  0  0  0
 19 12  1  0  0  0
 12 13  2  0  0  0
 13 14  1  0  0  0
 14 15  2  0  0  0
 15 16  1  0  0  0
 16 17  2  0  0  0
 15  1  1  0  0  0
  1  2  2  0  0  0
  1  3  1  0  0  0
  3  4  1  0  0  0
  4  5  1  0  0  0
  5  6  2  0  0  0
  6  7  1  0  0  0
  7  8  2  0  0  0
  8 22  1  0  0  0
 22 23  1  0  0  0
 23 24  2  0  0  0
 23 26  1  0  0  0
 26 27  2  0  0  0
 27 28  1  0  0  0
 28 29  2  0  0  0
 29 30  1  0  0  0
 30 31  1  0  0  0
 30 32  2  0  0  0
  8  9  1  0  0  0
  9 10  2  0  0  0
 10 11  1  0  0  0
 17 12  1  0  0  0
 11  3  1  0  0  0
 10  5  1  0  0  0
 32 26  1  0  0  0
 18 21  1  0  0  0
 22 25  1  0  0  0
M  END
> <minimizedAffinity>
13.84728

> <CNNscore>
0.4202672243

> <CNNaffinity>
6.3572425842

> <CNN_VS>
2.6717407703

> <CNNaffinity_variance>
0.6203117371

$$$$
[H]OC(=O)c1c([H])c([H])c(C(=O)N2C([H])([H])c3c([H])c([H])c(N([H])C(=O)c4c([H])c([H])c([H])c(Cl)c4[H])c([H])c3C2([H])[H])c([H])c1[H]


 32 35  0  0  0  0  0  0  0  0999 V2000
    9.5702   41.9587  127.0581 C   0  0  0  0  0  0  0  0  0  0  0  0
    8.9546   42.9177  126.3641 O   0  0  0  0  0  0  0  0  0  0  0  0
    9.8416   42.3317  128.3991 N   0  0  0  0  0  0  0  0  0  0  0  0
   10.4487   41.5579  129.4247 C   0  0  0  0  0  0  0  0  0  0  0  0
   10.2196   42.3240  130.6789 C   0  0  0  0  0  0  0  0  0  0  0  0
   10.4482   42.0096  131.9989 C   0  0  0  0  0  0  0  0  0  0  0  0
   10.1438   42.8907  133.0497 C   0  0  0  0  0  0  0  0  0  0  0  0
    9.5976   44.1156  132.7794 C   0  0  0  0  0  0  0  0  0  0  0  0
    9.3705   44.4238  131.4328 C   0  0  0  0  0  0  0  0  0  0  0  0
    9.6774   43.5402  130.3972 C   0  0  0  0  0  0  0  0  0  0  0  0
    9.5232   43.6703  128.9280 C   0  0  0  0  0  0  0  0  0  0  0  0
   10.6635   38.3910  125.0833 C   0  0  0  0  0  0  0  0  0  0  0  0
    9.4077   38.8933  124.8837 C   0  0  0  0  0  0  0  0  0  0  0  0
    9.0317   40.0792  125.5495 C   0  0  0  0  0  0  0  0  0  0  0  0
    9.8511   40.7514  126.3790 C   0  0  0  0  0  0  0  0  0  0  0  0
   11.1305   40.1963  126.5526 C   0  0  0  0  0  0  0  0  0  0  0  0
   11.5334   39.0434  125.9225 C   0  0  0  0  0  0  0  0  0  0  0  0
   10.5326   36.8633  123.1704 O   0  0  0  0  0  0  0  0  0  0  0  0
   11.0670   37.1594  124.3977 C   0  0  0  0  0  0  0  0  0  0  0  0
   11.8953   36.3863  124.9346 O   0  0  0  0  0  0  0  0  0  0  0  0
   10.3695   37.5922  122.4878 H   0  0  0  0  0  0  0  0  0  0  0  0
    9.2335   45.0662  133.7731 N   0  0  0  0  0  0  0  0  0  0  0  0
    9.8997   46.2232  134.1559 C   0  0  0  0  0  0  0  0  0  0  0  0
   10.9852   46.5566  133.6054 O   0  0  0  0  0  0  0  0  0  0  0  0
    8.3134   44.8675  134.2951 H   0  0  0  0  0  0  0  0  0  0  0  0
    9.3459   47.0760  135.2098 C   0  0  0  0  0  0  0  0  0  0  0  0
    9.7695   47.1154  136.5040 C   0  0  0  0  0  0  0  0  0  0  0  0
    9.1833   47.9555  137.4583 C   0  0  0  0  0  0  0  0  0  0  0  0
    8.1430   48.7778  137.0992 C   0  0  0  0  0  0  0  0  0  0  0  0
    7.7093   48.7473  135.8033 C   0  0  0  0  0  0  0  0  0  0  0  0
    6.3813   49.8033  135.3638 Cl  0  0  0  0  0  0  0  0  0  0  0  0
    8.2908   47.9185  134.8712 C   0  0  0  0  0  0  0  0  0  0  0  0
 18 19  1  0  0  0
 19 20  2  0  0  0
 19 12  1  0  0  0
 12 13  2  0  0  0
 13 14  1  0  0  0
 14 15  2  0  0  0
 15 16  1  0  0  0
 16 17  2  0  0  0
 15  1  1  0  0  0
  1  2  2  0  0  0
  1  3  1  0  0  0
  3  4  1  0  0  0
  4  5  1  0  0  0
  5  6  2  0  0  0
  6  7  1  0  0  0
  7  8  2  0  0  0
  8 22  1  0  0  0
 22 23  1  0  0  0
 23 24  2  0  0  0
 23 26  1  0  0  0
 26 27  2  0  0  0
 27 28  1  0  0  0
 28 29  2  0  0  0
 29 30  1  0  0  0
 30 31  1  0  0  0
 30 32  2  0  0  0
  8  9  1  0  0  0
  9 10  2  0  0  0
 10 11  1  0  0  0
 17 12  1  0  0  0
 11  3  1  0  0  0
 10  5  1  0  0  0
 32 26  1  0  0  0
 18 21  1  0  0  0
 22 25  1  0  0  0
M  END
> <minimizedAffinity>
42.43484

> <CNNscore>
0.3920097053

> <CNNaffinity>
6.1693015099

> <CNN_VS>
2.4184260368

> <CNNaffinity_variance>
0.7738502622

$$$$
[H]OC(=O)c1c([H])c([H])c(C(=O)N2C([H])([H])c3c([H])c([H])c(N([H])C(=O)c4c([H])c([H])c([H])c(Cl)c4[H])c([H])c3C2([H])[H])c([H])c1[H]


 32 35  0  0  0  0  0  0  0  0999 V2000
    8.1839   47.9765  130.5642 C   0  0  0  0  0  0  0  0  0  0  0  0
    6.9333   48.0269  130.1021 O   0  0  0  0  0  0  0  0  0  0  0  0
    8.8673   46.7925  130.1871 N   0  0  0  0  0  0  0  0  0  0  0  0
   10.2091   46.4199  130.4698 C   0  0  0  0  0  0  0  0  0  0  0  0
   10.4782   45.2424  129.6019 C   0  0  0  0  0  0  0  0  0  0  0  0
   11.6350   44.5468  129.3347 C   0  0  0  0  0  0  0  0  0  0  0  0
   11.6722   43.4492  128.4587 C   0  0  0  0  0  0  0  0  0  0  0  0
   10.5287   43.0341  127.8327 C   0  0  0  0  0  0  0  0  0  0  0  0
    9.3584   43.7495  128.1134 C   0  0  0  0  0  0  0  0  0  0  0  0
    9.3338   44.8383  128.9859 C   0  0  0  0  0  0  0  0  0  0  0  0
    8.2187   45.7156  129.4173 C   0  0  0  0  0  0  0  0  0  0  0  0
    9.5751   51.0855  133.0588 C   0  0  0  0  0  0  0  0  0  0  0  0
    8.8467   51.4110  131.9485 C   0  0  0  0  0  0  0  0  0  0  0  0
    8.3883   50.3775  131.1042 C   0  0  0  0  0  0  0  0  0  0  0  0
    8.6306   49.0739  131.3349 C   0  0  0  0  0  0  0  0  0  0  0  0
    9.3831   48.7893  132.4871 C   0  0  0  0  0  0  0  0  0  0  0  0
    9.8475   49.7674  133.3333 C   0  0  0  0  0  0  0  0  0  0  0  0
    9.1837   53.1091  134.3860 O   0  0  0  0  0  0  0  0  0  0  0  0
   10.0576   52.1495  133.9446 C   0  0  0  0  0  0  0  0  0  0  0  0
   11.2618   52.1766  134.2927 O   0  0  0  0  0  0  0  0  0  0  0  0
    8.2329   52.8679  134.6343 H   0  0  0  0  0  0  0  0  0  0  0  0
   10.4684   41.9509  126.9126 N   0  0  0  0  0  0  0  0  0  0  0  0
   10.1945   40.6122  127.1613 C   0  0  0  0  0  0  0  0  0  0  0  0
    9.9576   40.2075  128.3330 O   0  0  0  0  0  0  0  0  0  0  0  0
   10.6523   42.2021  125.8822 H   0  0  0  0  0  0  0  0  0  0  0  0
   10.1768   39.6481  126.0591 C   0  0  0  0  0  0  0  0  0  0  0  0
    9.2593   39.6091  125.0529 C   0  0  0  0  0  0  0  0  0  0  0  0
    9.3053   38.6492  124.0348 C   0  0  0  0  0  0  0  0  0  0  0  0
   10.3021   37.7038  124.0302 C   0  0  0  0  0  0  0  0  0  0  0  0
   11.2288   37.7330  125.0345 C   0  0  0  0  0  0  0  0  0  0  0  0
   12.4929   36.5192  125.0119 Cl  0  0  0  0  0  0  0  0  0  0  0  0
   11.1766   38.6798  126.0319 C   0  0  0  0  0  0  0  0  0  0  0  0
 18 19  1  0  0  0
 19 20  2  0  0  0
 19 12  1  0  0  0
 12 13  2  0  0  0
 13 14  1  0  0  0
 14 15  2  0  0  0
 15 16  1  0  0  0
 16 17  2  0  0  0
 15  1  1  0  0  0
  1  2  2  0  0  0
  1  3  1  0  0  0
  3  4  1  0  0  0
  4  5  1  0  0  0
  5  6  2  0  0  0
  6  7  1  0  0  0
  7  8  2  0  0  0
  8 22  1  0  0  0
 22 23  1  0  0  0
 23 24  2  0  0  0
 23 26  1  0  0  0
 26 27  2  0  0  0
 27 28  1  0  0  0
 28 29  2  0  0  0
 29 30  1  0  0  0
 30 31  1  0  0  0
 30 32  2  0  0  0
  8  9  1  0  0  0
  9 10  2  0  0  0
 10 11  1  0  0  0
 17 12  1  0  0  0
 11  3  1  0  0  0
 10  5  1  0  0  0
 32 26  1  0  0  0
 18 21  1  0  0  0
 22 25  1  0  0  0
M  END
> <minimizedAffinity>
30.73174

> <CNNscore>
0.3906453252

> <CNNaffinity>
6.2442307472

> <CNN_VS>
2.4392795563

> <CNNaffinity_variance>
0.9304569960

$$$$
